-------------------------------------------------------
          Amber 18 PMEMD                              2018
          -------------------------------------------------------

  [-O]verwriting output

File Assignments:

 Here is the input file:

Equilibration with solute restrictions
&cntrl
imin = 0,                           ! No Minimization
nmropt = 0,                         ! No NMR restraints read

! Nature and format of the input
ntx = 5,                            ! Coordinates and velocities will be read
irest = 1,                          ! Do not run a new simulation

! Nature and format of the output
ntxo = 1,                           ! rstrt file in ASCII format
ntpr = 500,                         ! inf in output every ntpr steps
ntwr = 500,                         ! rstrt file every ntwr steps
ntwx = 500,                         ! mdcrd file every ntwx steps
ntwv = 0,                           ! mdvel without velocities
ntwe = 0,                           ! Do not write energies and temperatures
idecomp = 0,                        ! No energy decomposition
iwrap = 1,                          ! Coordinates of the restart and mdcrd file

! Frozen or restrained atoms
ibelly = 0,                         ! No frozen atoms
ntr=1,                              ! Harmonic potential restraints
restraint_wt = 2.0,                ! The weight for the positional restraints
restraintmask = ':1-188@N,CA,C,O',  ! restrained residues

! Molecular dynamics
nstlim = 50000,                     ! Number of MD-steps
dt = 0.002,                         ! Time step

! Temperature regulation
ntt = 3,                            ! Langevin thermostat
gamma_ln = 5,                       ! Gamma constant for Langevin
temp0 = 300.0,                      ! Reference T at which the system is to be
tempi = 300.0,                      ! Initial T
ig = -1,                            ! Seed for the RNG

! P and V regulation
ntp = 1,                            ! constant P
barostat = 1,                       ! Berendsen barostat
taup = 1,                           ! Pressure relaxation time
ntb = 2,                            ! Periodic box for constant P

! SHAKE variables
ntc = 2,                            ! Bonds involving H are constrained
ntf = 2,                            ! Bond interaction involving H are ommited.

cut = 11.0,                         ! Nonbonded cutoff
/
&end

Note: ig = -1. Setting random seed to    36889 based on wallclock time in
      microseconds.

--------------------------------------------------------------------------------
   1.  RESOURCE   USE:
--------------------------------------------------------------------------------

 getting new box info from bottom of inpcrd
 NATOM  =   27546 NTYPES =      19 NBONH =   19891 MBONA  =    7685
 NTHETH =    3414 MTHETA =    2086 NPHIH =    6824 MPHIA  =    6552
 NHPARM =       0 NPARM  =       0 NNB   =   59527 NRES   =    6321
 NBONA  =    7685 NTHETA =    2086 NPHIA =    6552 NUMBND =      74
 NUMANG =     172 NPTRA  =     192 NATYP =      38 NPHB   =       1
 IFBOX  =       2 NMXRS  =      24 IFCAP =       0 NEXTRA =    6131
 NCOPY  =       0

     BOX TYPE: TRUNCATED OCTAHEDRON

--------------------------------------------------------------------------------
   2.  CONTROL  DATA  FOR  THE  RUN
--------------------------------------------------------------------------------

default_name

General flags:
     imin    =       0, nmropt  =       0

Nature and format of input:
     ntx     =       5, irest   =       1, ntrx    =       1

Nature and format of output:
     ntxo    =       1, ntpr    =     500, ntrx    =       1, ntwr    =     500
     iwrap   =       1, ntwx    =     500, ntwv    =       0, ntwe    =       0
     ioutfm  =       1, ntwprt  =       0, idecomp =       0, rbornstat=      0

Potential function:
     ntf     =       2, ntb     =       2, igb     =       0, nsnb    =      25
     ipol    =       0, gbsa    =       0, iesp    =       0
     dielc   =   1.00000, cut     =  11.00000, intdiel =   1.00000

Frozen or restrained atoms:
     ibelly  =       0, ntr     =       1
     restraint_wt =   2.00000

Molecular dynamics:
     nstlim  =     50000, nscm    =         0, nrespa  =         1
     t       =   0.00000, dt      =   0.00200, vlimit  =  -1.00000

Langevin dynamics temperature regulation:
     ig      =   36889
     temp0   = 300.00000, tempi   = 300.00000, gamma_ln=   5.00000

Pressure regulation:
     ntp     =       1
     pres0   =   1.00000, comp    =  44.60000, taup    =   1.00000

SHAKE:
     ntc     =       2, jfastw  =       0
     tol     =   0.00001

Extra-points options:
     frameon =       1, chngmask=       1

Ewald parameters:
     verbose =       0, ew_type =       0, nbflag  =       1, use_pme =       1
     vdwmeth =       1, eedmeth =       1, netfrc  =       1
     Box X =   64.864   Box Y =   64.864   Box Z =   64.864
     Alpha =  109.471   Beta  =  109.471   Gamma =  109.471
     NFFT1 =   64       NFFT2 =   64       NFFT3 =   64
     Cutoff=   11.000   Tol   =0.100E-04
     Ewald Coefficient =  0.24861
     Interpolation order =    4

    LOADING THE CONSTRAINED ATOMS AS GROUPS

   5.  REFERENCE ATOM COORDINATES

  default_name
     Mask :1-188@N,CA,C,O; matches   752 atoms

--------------------------------------------------------------------------------
   3.  ATOMIC COORDINATES AND VELOCITIES
--------------------------------------------------------------------------------

default_name
 begin time read from input coords =  2000.000 ps

 Number of triangulated 3-point waters found:     6131

     Sum of charges from parm topology file =   0.00003348
     Forcing neutrality...

--------------------------------------------------------------------------------
   4.  RESULTS
 NSTEP =      500   TIME(PS) =    2001.000  TEMP(K) =   299.78  PRESS =  -283.0
 Etot   =    -67889.2169  EKtot   =     13211.4287  EPtot      =    -81100.6456
 BOND   =       587.1719  ANGLE   =      1614.5386  DIHED      =      1024.0082
 UB     =         0.0000  IMP     =         0.0000  CMAP       =       142.4453
 1-4 NB =       661.2276  1-4 EEL =     10288.5919  VDWAALS    =      8683.3807
 EELEC  =   -104192.7601  EHBOND  =         0.0000  RESTRAINT  =        90.7503
 EAMBER (non-restraint)  =    -81191.3959
 EKCMT  =      5569.1870  VIRIAL  =      6853.0374  VOLUME     =    210121.2950
                                                    Density    =         1.0445
 ------------------------------------------------------------------------------

      A V E R A G E S   O V E R     100 S T E P S

 NSTEP =    50000   TIME(PS) =    2100.000  TEMP(K) =   300.03  PRESS =   -27.9
 Etot   =    -67847.1198  EKtot   =     13222.4516  EPtot      =    -81069.5714
 BOND   =       559.3198  ANGLE   =      1599.9235  DIHED      =      1040.2495
 UB     =         0.0000  IMP     =         0.0000  CMAP       =       144.7546
 1-4 NB =       671.6731  1-4 EEL =     10322.5976  VDWAALS    =      8881.0665
 EELEC  =   -104382.4621  EHBOND  =         0.0000  RESTRAINT  =        93.3061
 EAMBER (non-restraint)  =    -81162.8775
 EKCMT  =      5511.4659  VIRIAL  =      5638.1174  VOLUME     =    210073.8147
                                                    Density    =         1.0448
 ------------------------------------------------------------------------------

      R M S  F L U C T U A T I O N S

 NSTEP =    50000   TIME(PS) =    2100.000  TEMP(K) =     2.00  PRESS =   160.6
 Etot   =       141.7579  EKtot   =        88.0129  EPtot      =       111.7758
 BOND   =        17.5219  ANGLE   =        29.1662  DIHED      =        15.6433
 UB     =         0.0000  IMP     =         0.0000  CMAP       =         4.0470
 1-4 NB =         9.2177  1-4 EEL =        24.9144  VDWAALS    =       119.2901
 EELEC  =       172.0425  EHBOND  =         0.0000  RESTRAINT  =         5.1554
 EAMBER (non-restraint)  =       106.6204
 EKCMT  =        60.2702  VIRIAL  =       730.5345  VOLUME     =       364.9698
                                                    Density    =         0.0018
 ------------------------------------------------------------------------------
