-------------------------------------------------------
          Amber 18 PMEMD                              2018
          -------------------------------------------------------

  [-O]verwriting output

File Assignments:

 Here is the input file:

Equilibration with solute restrictions
&cntrl
imin = 0,                           ! No Minimization
nmropt = 0,                         ! No NMR restraints read

! Nature and format of the input
ntx = 5,                            ! Coordinates but no velocities will be rea
irest = 1,                          ! Do not run a new simulation

! Nature and format of the output
ntxo = 1,                           ! rstrt file in ASCII format
ntpr = 500,                         ! inf in output every ntpr steps
ntwr = 500,                         ! rstrt file every ntwr steps
ntwx = 500,                         ! mdcrd file every ntwx steps
ntwv = 0,                           ! mdvel without velocities
ntwe = 0,                           ! Do not write energies and temperatures
idecomp = 0,                        ! No energy decomposition
iwrap = 1,                          ! Coordinates of the restart and mdcrd file

! Frozen or restrained atoms
ibelly = 0,                         ! No frozen atoms
ntr=1,                              ! Harmonic potential restraints
restraint_wt = 0.004,                ! The weight for the positional restraints
restraintmask = ':1-429@N,CA,C,O',  ! restrained residues

! Molecular dynamics
nstlim = 50000,                     ! Number of MD-steps
dt = 0.002,                         ! Time step

! Temperature regulation
ntt = 3,                            ! Langevin thermostat
gamma_ln = 5,                       ! Gamma constant for Langevin
temp0 = 300.0,                      ! Reference T at which the system is to be
tempi = 300.0,                      ! Initial T
ig = -1,                            ! Seed for the RNG

! P and V regulation
ntp = 1,                            ! constant P
barostat = 1,                       ! Berendsen barostat
taup = 1,                           ! Pressure relaxation time
ntb = 2,                            ! Periodic box for constant P

! SHAKE variables
ntc = 2,                            ! Bonds involving H are constrained
ntf = 2,                            ! Bond interaction involving H are ommited.

cut = 10.0,                         ! Nonbonded cutoff
/
&end

Note: ig = -1. Setting random seed to   660195 based on wallclock time in
      microseconds.

--------------------------------------------------------------------------------
   1.  RESOURCE   USE:
--------------------------------------------------------------------------------

 getting new box info from bottom of inpcrd
 NATOM  =   99069 NTYPES =      18 NBONH =   72575 MBONA  =   26562
 NTHETH =    7652 MTHETA =    4742 NPHIH =   15618 MPHIA  =   15137
 NHPARM =       0 NPARM  =       0 NNB   =  198959 NRES   =   23494
 NBONA  =   26562 NTHETA =    4742 NPHIA =   15137 NUMBND =      75
 NUMANG =     181 NPTRA  =     191 NATYP =      37 NPHB   =       1
 IFBOX  =       2 NMXRS  =      24 IFCAP =       0 NEXTRA =   23065
 NCOPY  =       0

     BOX TYPE: TRUNCATED OCTAHEDRON

--------------------------------------------------------------------------------
   2.  CONTROL  DATA  FOR  THE  RUN
--------------------------------------------------------------------------------

default_name

General flags:
     imin    =       0, nmropt  =       0

Nature and format of input:
     ntx     =       5, irest   =       1, ntrx    =       1

Nature and format of output:
     ntxo    =       1, ntpr    =     500, ntrx    =       1, ntwr    =     500
     iwrap   =       1, ntwx    =     500, ntwv    =       0, ntwe    =       0
     ioutfm  =       1, ntwprt  =       0, idecomp =       0, rbornstat=      0

Potential function:
     ntf     =       2, ntb     =       2, igb     =       0, nsnb    =      25
     ipol    =       0, gbsa    =       0, iesp    =       0
     dielc   =   1.00000, cut     =  10.00000, intdiel =   1.00000

Frozen or restrained atoms:
     ibelly  =       0, ntr     =       1
     restraint_wt =   0.00400

Molecular dynamics:
     nstlim  =     50000, nscm    =         0, nrespa  =         1
     t       =   0.00000, dt      =   0.00200, vlimit  =  -1.00000

Langevin dynamics temperature regulation:
     ig      =  660195
     temp0   = 300.00000, tempi   = 300.00000, gamma_ln=   5.00000

Pressure regulation:
     ntp     =       1
     pres0   =   1.00000, comp    =  44.60000, taup    =   1.00000

SHAKE:
     ntc     =       2, jfastw  =       0
     tol     =   0.00001

Extra-points options:
     frameon =       1, chngmask=       1

Ewald parameters:
     verbose =       0, ew_type =       0, nbflag  =       1, use_pme =       1
     vdwmeth =       1, eedmeth =       1, netfrc  =       1
     Box X =   99.196   Box Y =   99.196   Box Z =   99.196
     Alpha =  109.471   Beta  =  109.471   Gamma =  109.471
     NFFT1 =  100       NFFT2 =  100       NFFT3 =  100
     Cutoff=   10.000   Tol   =0.100E-04
     Ewald Coefficient =  0.27511
     Interpolation order =    4

    LOADING THE CONSTRAINED ATOMS AS GROUPS

   5.  REFERENCE ATOM COORDINATES

  default_name
     Mask :1-429@N,CA,C,O; matches  1716 atoms

--------------------------------------------------------------------------------
   3.  ATOMIC COORDINATES AND VELOCITIES
--------------------------------------------------------------------------------

default_name
 begin time read from input coords =  6800.000 ps

 Number of triangulated 3-point waters found:    23065

     Sum of charges from parm topology file =   0.00012630
     Forcing neutrality...

--------------------------------------------------------------------------------
   4.  RESULTS
 NSTEP =      500   TIME(PS) =    6801.000  TEMP(K) =   301.03  PRESS =    59.6
 Etot   =   -250204.6348  EKtot   =     46491.0547  EPtot      =   -296695.6895
 BOND   =      1319.4958  ANGLE   =      3468.6324  DIHED      =      2473.1319
 UB     =         0.0000  IMP     =         0.0000  CMAP       =       332.1035
 1-4 NB =      1481.5928  1-4 EEL =     20296.9291  VDWAALS    =     36850.0325
 EELEC  =   -362918.8368  EHBOND  =         0.0000  RESTRAINT  =         1.2292
 EAMBER (non-restraint)  =   -296696.9187
 EKCMT  =     20687.9752  VIRIAL  =     19720.8782  VOLUME     =    751116.6435
                                                    Density    =         1.0266
 ------------------------------------------------------------------------------

      A V E R A G E S   O V E R     100 S T E P S

 NSTEP =    50000   TIME(PS) =    6900.000  TEMP(K) =   300.19  PRESS =    -3.3
 Etot   =   -250087.4969  EKtot   =     46362.1880  EPtot      =   -296449.6850
 BOND   =      1291.5453  ANGLE   =      3445.8386  DIHED      =      2481.5608
 UB     =         0.0000  IMP     =         0.0000  CMAP       =       326.8501
 1-4 NB =      1533.4797  1-4 EEL =     20355.1690  VDWAALS    =     36681.4837
 EELEC  =   -362569.1197  EHBOND  =         0.0000  RESTRAINT  =         3.5076
 EAMBER (non-restraint)  =   -296453.1926
 EKCMT  =     20698.8352  VIRIAL  =     20752.3946  VOLUME     =    751569.5638
                                                    Density    =         1.0260
 ------------------------------------------------------------------------------

      R M S  F L U C T U A T I O N S

 NSTEP =    50000   TIME(PS) =    6900.000  TEMP(K) =     1.08  PRESS =    89.8
 Etot   =       284.0355  EKtot   =       167.2930  EPtot      =       246.4559
 BOND   =        25.6963  ANGLE   =        45.6107  DIHED      =        22.8665
 UB     =         0.0000  IMP     =         0.0000  CMAP       =         9.6784
 1-4 NB =        15.3375  1-4 EEL =        42.1088  VDWAALS    =       263.7252
 EELEC  =       396.0824  EHBOND  =         0.0000  RESTRAINT  =         0.7881
 EAMBER (non-restraint)  =       245.6678
 EKCMT  =       100.3571  VIRIAL  =      1456.1452  VOLUME     =      1041.4453
                                                    Density    =         0.0014
 ------------------------------------------------------------------------------
