-------------------------------------------------------
          Amber 18 PMEMD                              2018
          -------------------------------------------------------

  [-O]verwriting output

File Assignments:

 Here is the input file:

Equilibration with solute restrictions
&cntrl
imin = 0,                           ! No Minimization
nmropt = 0,                         ! No NMR restraints read

! Nature and format of the input
ntx = 5,                            ! Coordinates and velocities will be read
irest = 1,                          ! Do not run a new simulation

! Nature and format of the output
ntxo = 1,                           ! rstrt file in ASCII format
ntpr = 500,                         ! inf in output every ntpr steps
ntwr = 500,                         ! rstrt file every ntwr steps
ntwx = 500,                         ! mdcrd file every ntwx steps
ntwv = 0,                           ! mdvel without velocities
ntwe = 0,                           ! Do not write energies and temperatures
idecomp = 0,                        ! No energy decomposition
iwrap = 1,                          ! Coordinates of the restart and mdcrd file

! Frozen or restrained atoms
ibelly = 0,                         ! No frozen atoms
ntr=1,                              ! Harmonic potential restraints
restraint_wt = 8.5,                ! The weight for the positional restraints
restraintmask = ':1-224@N,CA,C,O',  ! restrained residues

! Molecular dynamics
nstlim = 50000,                     ! Number of MD-steps
dt = 0.002,                         ! Time step

! Temperature regulation
ntt = 3,                            ! Langevin thermostat
gamma_ln = 5,                       ! Gamma constant for Langevin
temp0 = 300.0,                      ! Reference T at which the system is to be
tempi = 300.0,                      ! Initial T
ig = -1,                            ! Seed for the RNG

! P and V regulation
ntp = 1,                            ! constant P
barostat = 1,                       ! Berendsen barostat
taup = 1,                           ! Pressure relaxation time
ntb = 2,                            ! Periodic box for constant P

! SHAKE variables
ntc = 2,                            ! Bonds involving H are constrained
ntf = 2,                            ! Bond interaction involving H are ommited.

cut = 11.0,                         ! Nonbonded cutoff
/
&end

Note: ig = -1. Setting random seed to   548282 based on wallclock time in
      microseconds.

--------------------------------------------------------------------------------
   1.  RESOURCE   USE:
--------------------------------------------------------------------------------

 getting new box info from bottom of inpcrd
 NATOM  =   35094 NTYPES =      19 NBONH =   25406 MBONA  =    9706
 NTHETH =    4174 MTHETA =    2496 NPHIH =    8340 MPHIA  =    8026
 NHPARM =       0 NPARM  =       0 NNB   =   75254 NRES   =    8094
 NBONA  =    9706 NTHETA =    2496 NPHIA =    8026 NUMBND =      71
 NUMANG =     162 NPTRA  =     183 NATYP =      37 NPHB   =       1
 IFBOX  =       2 NMXRS  =      24 IFCAP =       0 NEXTRA =    7860
 NCOPY  =       0

     BOX TYPE: TRUNCATED OCTAHEDRON

--------------------------------------------------------------------------------
   2.  CONTROL  DATA  FOR  THE  RUN
--------------------------------------------------------------------------------

default_name

General flags:
     imin    =       0, nmropt  =       0

Nature and format of input:
     ntx     =       5, irest   =       1, ntrx    =       1

Nature and format of output:
     ntxo    =       1, ntpr    =     500, ntrx    =       1, ntwr    =     500
     iwrap   =       1, ntwx    =     500, ntwv    =       0, ntwe    =       0
     ioutfm  =       1, ntwprt  =       0, idecomp =       0, rbornstat=      0

Potential function:
     ntf     =       2, ntb     =       2, igb     =       0, nsnb    =      25
     ipol    =       0, gbsa    =       0, iesp    =       0
     dielc   =   1.00000, cut     =  11.00000, intdiel =   1.00000

Frozen or restrained atoms:
     ibelly  =       0, ntr     =       1
     restraint_wt =   8.50000

Molecular dynamics:
     nstlim  =     50000, nscm    =         0, nrespa  =         1
     t       =   0.00000, dt      =   0.00200, vlimit  =  -1.00000

Langevin dynamics temperature regulation:
     ig      =  548282
     temp0   = 300.00000, tempi   = 300.00000, gamma_ln=   5.00000

Pressure regulation:
     ntp     =       1
     pres0   =   1.00000, comp    =  44.60000, taup    =   1.00000

SHAKE:
     ntc     =       2, jfastw  =       0
     tol     =   0.00001

Extra-points options:
     frameon =       1, chngmask=       1

Ewald parameters:
     verbose =       0, ew_type =       0, nbflag  =       1, use_pme =       1
     vdwmeth =       1, eedmeth =       1, netfrc  =       1
     Box X =   70.483   Box Y =   70.483   Box Z =   70.483
     Alpha =  109.471   Beta  =  109.471   Gamma =  109.471
     NFFT1 =   72       NFFT2 =   72       NFFT3 =   72
     Cutoff=   11.000   Tol   =0.100E-04
     Ewald Coefficient =  0.24861
     Interpolation order =    4

    LOADING THE CONSTRAINED ATOMS AS GROUPS

   5.  REFERENCE ATOM COORDINATES

  default_name
     Mask :1-224@N,CA,C,O; matches   896 atoms

--------------------------------------------------------------------------------
   3.  ATOMIC COORDINATES AND VELOCITIES
--------------------------------------------------------------------------------

default_name
 begin time read from input coords =   700.000 ps

 Number of triangulated 3-point waters found:     7860

     Sum of charges from parm topology file =   0.00004304
     Forcing neutrality...

--------------------------------------------------------------------------------
   4.  RESULTS
 NSTEP =      500   TIME(PS) =     701.000  TEMP(K) =   299.33  PRESS =  -358.7
 Etot   =    -88129.0826  EKtot   =     16742.9590  EPtot      =   -104872.0415
 BOND   =       679.7240  ANGLE   =      1852.1312  DIHED      =      1359.9267
 UB     =         0.0000  IMP     =         0.0000  CMAP       =       202.0980
 1-4 NB =       832.3397  1-4 EEL =     11397.0913  VDWAALS    =     11482.6322
 EELEC  =   -132890.9708  EHBOND  =         0.0000  RESTRAINT  =       212.9862
 EAMBER (non-restraint)  =   -105085.0278
 EKCMT  =      7083.5553  VIRIAL  =      9173.1928  VOLUME     =    269786.4531
                                                    Density    =         1.0317
 ------------------------------------------------------------------------------

      A V E R A G E S   O V E R     100 S T E P S

 NSTEP =    50000   TIME(PS) =     800.000  TEMP(K) =   300.16  PRESS =    -9.9
 Etot   =    -88210.5510  EKtot   =     16789.7701  EPtot      =   -105000.3211
 BOND   =       663.8927  ANGLE   =      1829.5288  DIHED      =      1339.6521
 UB     =         0.0000  IMP     =         0.0000  CMAP       =       197.3444
 1-4 NB =       831.6752  1-4 EEL =     11388.3731  VDWAALS    =     11737.0587
 EELEC  =   -133202.1845  EHBOND  =         0.0000  RESTRAINT  =       214.3385
 EAMBER (non-restraint)  =   -105214.6595
 EKCMT  =      7075.1662  VIRIAL  =      7132.5865  VOLUME     =    269232.0919
                                                    Density    =         1.0338
 ------------------------------------------------------------------------------

      R M S  F L U C T U A T I O N S

 NSTEP =    50000   TIME(PS) =     800.000  TEMP(K) =     1.91  PRESS =   162.9
 Etot   =       154.1224  EKtot   =       106.6212  EPtot      =       132.4269
 BOND   =        19.7071  ANGLE   =        29.4444  DIHED      =        14.4098
 UB     =         0.0000  IMP     =         0.0000  CMAP       =         4.0513
 1-4 NB =        10.8726  1-4 EEL =        27.4127  VDWAALS    =       139.0025
 EELEC  =       198.1861  EHBOND  =         0.0000  RESTRAINT  =         9.2270
 EAMBER (non-restraint)  =       123.1998
 EKCMT  =        69.2138  VIRIAL  =       949.7266  VOLUME     =       476.4278
                                                    Density    =         0.0018
 ------------------------------------------------------------------------------
