-------------------------------------------------------
          Amber 18 PMEMD                              2018
          -------------------------------------------------------

  [-O]verwriting output

File Assignments:

 Here is the input file:

Equilibration with solute restrictions
&cntrl
imin = 0,                           ! No Minimization
nmropt = 0,                         ! No NMR restraints read

! Nature and format of the input
ntx = 5,                            ! Coordinates and velocities will be read
irest = 1,                          ! Do not run a new simulation

! Nature and format of the output
ntxo = 1,                           ! rstrt file in ASCII format
ntpr = 500,                         ! inf in output every ntpr steps
ntwr = 500,                         ! rstrt file every ntwr steps
ntwx = 500,                         ! mdcrd file every ntwx steps
ntwv = 0,                           ! mdvel without velocities
ntwe = 0,                           ! Do not write energies and temperatures
idecomp = 0,                        ! No energy decomposition
iwrap = 1,                          ! Coordinates of the restart and mdcrd file

! Frozen or restrained atoms
ibelly = 0,                         ! No frozen atoms
ntr=1,                              ! Harmonic potential restraints
restraint_wt = 0.006,                ! The weight for the positional restraints
restraintmask = ':1-224@N,CA,C,O',  ! restrained residues

! Molecular dynamics
nstlim = 50000,                     ! Number of MD-steps
dt = 0.002,                         ! Time step

! Temperature regulation
ntt = 3,                            ! Langevin thermostat
gamma_ln = 5,                       ! Gamma constant for Langevin
temp0 = 300.0,                      ! Reference T at which the system is to be
tempi = 300.0,                      ! Initial T
ig = -1,                            ! Seed for the RNG

! P and V regulation
ntp = 1,                            ! constant P
barostat = 1,                       ! Berendsen barostat
taup = 1,                           ! Pressure relaxation time
ntb = 2,                            ! Periodic box for constant P

! SHAKE variables
ntc = 2,                            ! Bonds involving H are constrained
ntf = 2,                            ! Bond interaction involving H are ommited.

cut = 11.0,                         ! Nonbonded cutoff
/
&end

Note: ig = -1. Setting random seed to   824566 based on wallclock time in
      microseconds.

--------------------------------------------------------------------------------
   1.  RESOURCE   USE:
--------------------------------------------------------------------------------

 getting new box info from bottom of inpcrd
 NATOM  =   35094 NTYPES =      19 NBONH =   25406 MBONA  =    9706
 NTHETH =    4174 MTHETA =    2496 NPHIH =    8340 MPHIA  =    8026
 NHPARM =       0 NPARM  =       0 NNB   =   75254 NRES   =    8094
 NBONA  =    9706 NTHETA =    2496 NPHIA =    8026 NUMBND =      71
 NUMANG =     162 NPTRA  =     183 NATYP =      37 NPHB   =       1
 IFBOX  =       2 NMXRS  =      24 IFCAP =       0 NEXTRA =    7860
 NCOPY  =       0

     BOX TYPE: TRUNCATED OCTAHEDRON

--------------------------------------------------------------------------------
   2.  CONTROL  DATA  FOR  THE  RUN
--------------------------------------------------------------------------------

default_name

General flags:
     imin    =       0, nmropt  =       0

Nature and format of input:
     ntx     =       5, irest   =       1, ntrx    =       1

Nature and format of output:
     ntxo    =       1, ntpr    =     500, ntrx    =       1, ntwr    =     500
     iwrap   =       1, ntwx    =     500, ntwv    =       0, ntwe    =       0
     ioutfm  =       1, ntwprt  =       0, idecomp =       0, rbornstat=      0

Potential function:
     ntf     =       2, ntb     =       2, igb     =       0, nsnb    =      25
     ipol    =       0, gbsa    =       0, iesp    =       0
     dielc   =   1.00000, cut     =  11.00000, intdiel =   1.00000

Frozen or restrained atoms:
     ibelly  =       0, ntr     =       1
     restraint_wt =   0.00600

Molecular dynamics:
     nstlim  =     50000, nscm    =         0, nrespa  =         1
     t       =   0.00000, dt      =   0.00200, vlimit  =  -1.00000

Langevin dynamics temperature regulation:
     ig      =  824566
     temp0   = 300.00000, tempi   = 300.00000, gamma_ln=   5.00000

Pressure regulation:
     ntp     =       1
     pres0   =   1.00000, comp    =  44.60000, taup    =   1.00000

SHAKE:
     ntc     =       2, jfastw  =       0
     tol     =   0.00001

Extra-points options:
     frameon =       1, chngmask=       1

Ewald parameters:
     verbose =       0, ew_type =       0, nbflag  =       1, use_pme =       1
     vdwmeth =       1, eedmeth =       1, netfrc  =       1
     Box X =   70.284   Box Y =   70.284   Box Z =   70.284
     Alpha =  109.471   Beta  =  109.471   Gamma =  109.471
     NFFT1 =   72       NFFT2 =   72       NFFT3 =   72
     Cutoff=   11.000   Tol   =0.100E-04
     Ewald Coefficient =  0.24861
     Interpolation order =    4

    LOADING THE CONSTRAINED ATOMS AS GROUPS

   5.  REFERENCE ATOM COORDINATES

  default_name
     Mask :1-224@N,CA,C,O; matches   896 atoms

--------------------------------------------------------------------------------
   3.  ATOMIC COORDINATES AND VELOCITIES
--------------------------------------------------------------------------------

default_name
 begin time read from input coords =  6400.000 ps

 Number of triangulated 3-point waters found:     7860

     Sum of charges from parm topology file =   0.00004304
     Forcing neutrality...

--------------------------------------------------------------------------------
   4.  RESULTS
 NSTEP =      500   TIME(PS) =    6401.000  TEMP(K) =   297.25  PRESS =    -3.0
 Etot   =    -88767.9811  EKtot   =     16626.7559  EPtot      =   -105394.7370
 BOND   =       657.9969  ANGLE   =      1846.8961  DIHED      =      1340.0915
 UB     =         0.0000  IMP     =         0.0000  CMAP       =       177.2706
 1-4 NB =       842.4738  1-4 EEL =     11369.8434  VDWAALS    =     11786.9063
 EELEC  =   -133417.1367  EHBOND  =         0.0000  RESTRAINT  =         0.9210
 EAMBER (non-restraint)  =   -105395.6580
 EKCMT  =      7059.8117  VIRIAL  =      7077.1926  VOLUME     =    267419.3181
                                                    Density    =         1.0408
 ------------------------------------------------------------------------------

      A V E R A G E S   O V E R     100 S T E P S

 NSTEP =    50000   TIME(PS) =    6500.000  TEMP(K) =   300.04  PRESS =    -3.9
 Etot   =    -88570.3790  EKtot   =     16782.9350  EPtot      =   -105353.3140
 BOND   =       679.4212  ANGLE   =      1839.5334  DIHED      =      1321.3821
 UB     =         0.0000  IMP     =         0.0000  CMAP       =       183.3007
 1-4 NB =       823.4408  1-4 EEL =     11344.5142  VDWAALS    =     11778.7035
 EELEC  =   -133327.8749  EHBOND  =         0.0000  RESTRAINT  =         4.2650
 EAMBER (non-restraint)  =   -105357.5790
 EKCMT  =      7070.0290  VIRIAL  =      7092.9097  VOLUME     =    267315.9675
                                                    Density    =         1.0412
 ------------------------------------------------------------------------------

      R M S  F L U C T U A T I O N S

 NSTEP =    50000   TIME(PS) =    6500.000  TEMP(K) =     1.62  PRESS =   154.7
 Etot   =       178.6204  EKtot   =        90.8418  EPtot      =       141.3753
 BOND   =        24.2693  ANGLE   =        33.8169  DIHED      =        15.4793
 UB     =         0.0000  IMP     =         0.0000  CMAP       =         7.2888
 1-4 NB =        11.2644  1-4 EEL =        32.6933  VDWAALS    =       159.9316
 EELEC  =       235.1646  EHBOND  =         0.0000  RESTRAINT  =         1.3254
 EAMBER (non-restraint)  =       140.0499
 EKCMT  =        64.3316  VIRIAL  =       901.6458  VOLUME     =       485.1815
                                                    Density    =         0.0019
 ------------------------------------------------------------------------------
