-------------------------------------------------------
          Amber 18 PMEMD                              2018
          -------------------------------------------------------

  [-O]verwriting output

File Assignments:

 Here is the input file:

Equilibration with solute restrictions
&cntrl
imin = 0,                           ! No Minimization
nmropt = 0,                         ! No NMR restraints read

! Nature and format of the input
ntx = 5,                            ! Coordinates but no velocities will be rea
irest = 1,                          ! Do not run a new simulation

! Nature and format of the output
ntxo = 1,                           ! rstrt file in ASCII format
ntpr = 500,                         ! inf in output every ntpr steps
ntwr = 500,                         ! rstrt file every ntwr steps
ntwx = 500,                         ! mdcrd file every ntwx steps
ntwv = 0,                           ! mdvel without velocities
ntwe = 0,                           ! Do not write energies and temperatures
idecomp = 0,                        ! No energy decomposition
iwrap = 1,                          ! Coordinates of the restart and mdcrd file

! Frozen or restrained atoms
ibelly = 0,                         ! No frozen atoms
ntr=1,                              ! Harmonic potential restraints
restraint_wt = 0.12,                ! The weight for the positional restraints
restraintmask = ':1-233@N,CA,C,O',  ! restrained residues

! Molecular dynamics
nstlim = 50000,                     ! Number of MD-steps
dt = 0.002,                         ! Time step

! Temperature regulation
ntt = 3,                            ! Langevin thermostat
gamma_ln = 5,                       ! Gamma constant for Langevin
temp0 = 300.0,                      ! Reference T at which the system is to be
tempi = 300.0,                      ! Initial T
ig = -1,                            ! Seed for the RNG

! P and V regulation
ntp = 1,                            ! constant P
barostat = 1,                       ! Berendsen barostat
taup = 1,                           ! Pressure relaxation time
ntb = 2,                            ! Periodic box for constant P

! SHAKE variables
ntc = 2,                            ! Bonds involving H are constrained
ntf = 2,                            ! Bond interaction involving H are ommited.

cut = 10.0,                         ! Nonbonded cutoff
/
&end

Note: ig = -1. Setting random seed to   949052 based on wallclock time in
      microseconds.

--------------------------------------------------------------------------------
   1.  RESOURCE   USE:
--------------------------------------------------------------------------------

 getting new box info from bottom of inpcrd
 NATOM  =   27384 NTYPES =      19 NBONH =   19623 MBONA  =    7793
 NTHETH =    4024 MTHETA =    2516 NPHIH =    8244 MPHIA  =    8106
 NHPARM =       0 NPARM  =       0 NNB   =   61413 NRES   =    6181
 NBONA  =    7793 NTHETA =    2516 NPHIA =    8106 NUMBND =      74
 NUMANG =     176 NPTRA  =     191 NATYP =      38 NPHB   =       1
 IFBOX  =       2 NMXRS  =      24 IFCAP =       0 NEXTRA =    5947
 NCOPY  =       0

     BOX TYPE: TRUNCATED OCTAHEDRON

--------------------------------------------------------------------------------
   2.  CONTROL  DATA  FOR  THE  RUN
--------------------------------------------------------------------------------

default_name

General flags:
     imin    =       0, nmropt  =       0

Nature and format of input:
     ntx     =       5, irest   =       1, ntrx    =       1

Nature and format of output:
     ntxo    =       1, ntpr    =     500, ntrx    =       1, ntwr    =     500
     iwrap   =       1, ntwx    =     500, ntwv    =       0, ntwe    =       0
     ioutfm  =       1, ntwprt  =       0, idecomp =       0, rbornstat=      0

Potential function:
     ntf     =       2, ntb     =       2, igb     =       0, nsnb    =      25
     ipol    =       0, gbsa    =       0, iesp    =       0
     dielc   =   1.00000, cut     =  10.00000, intdiel =   1.00000

Frozen or restrained atoms:
     ibelly  =       0, ntr     =       1
     restraint_wt =   0.12000

Molecular dynamics:
     nstlim  =     50000, nscm    =         0, nrespa  =         1
     t       =   0.00000, dt      =   0.00200, vlimit  =  -1.00000

Langevin dynamics temperature regulation:
     ig      =  949052
     temp0   = 300.00000, tempi   = 300.00000, gamma_ln=   5.00000

Pressure regulation:
     ntp     =       1
     pres0   =   1.00000, comp    =  44.60000, taup    =   1.00000

SHAKE:
     ntc     =       2, jfastw  =       0
     tol     =   0.00001

Extra-points options:
     frameon =       1, chngmask=       1

Ewald parameters:
     verbose =       0, ew_type =       0, nbflag  =       1, use_pme =       1
     vdwmeth =       1, eedmeth =       1, netfrc  =       1
     Box X =   64.902   Box Y =   64.902   Box Z =   64.902
     Alpha =  109.471   Beta  =  109.471   Gamma =  109.471
     NFFT1 =   64       NFFT2 =   64       NFFT3 =   64
     Cutoff=   10.000   Tol   =0.100E-04
     Ewald Coefficient =  0.27511
     Interpolation order =    4

    LOADING THE CONSTRAINED ATOMS AS GROUPS

   5.  REFERENCE ATOM COORDINATES

  default_name
     Mask :1-233@N,CA,C,O; matches   928 atoms

--------------------------------------------------------------------------------
   3.  ATOMIC COORDINATES AND VELOCITIES
--------------------------------------------------------------------------------

default_name
 begin time read from input coords =  4200.000 ps

 Number of triangulated 3-point waters found:     5947

     Sum of charges from parm topology file =   0.00003250
     Forcing neutrality...

--------------------------------------------------------------------------------
   4.  RESULTS
 NSTEP =      500   TIME(PS) =    4201.000  TEMP(K) =   301.23  PRESS =   -62.5
 Etot   =    -67059.4408  EKtot   =     13375.0605  EPtot      =    -80434.5014
 BOND   =       649.7214  ANGLE   =      1815.8592  DIHED      =      1360.4417
 UB     =         0.0000  IMP     =         0.0000  CMAP       =       168.8425
 1-4 NB =       826.9313  1-4 EEL =     10663.3233  VDWAALS    =      8238.9117
 EELEC  =   -104176.5083  EHBOND  =         0.0000  RESTRAINT  =        17.9756
 EAMBER (non-restraint)  =    -80452.4770
 EKCMT  =      5208.7414  VIRIAL  =      5492.3070  VOLUME     =    210067.9794
                                                    Density    =         1.0517
 ------------------------------------------------------------------------------

      A V E R A G E S   O V E R     100 S T E P S

 NSTEP =    50000   TIME(PS) =    4300.000  TEMP(K) =   300.18  PRESS =   -10.1
 Etot   =    -67108.2830  EKtot   =     13328.6133  EPtot      =    -80436.8963
 BOND   =       675.1645  ANGLE   =      1792.9156  DIHED      =      1378.2677
 UB     =         0.0000  IMP     =         0.0000  CMAP       =       170.5366
 1-4 NB =       815.8682  1-4 EEL =     10706.7011  VDWAALS    =      8169.6815
 EELEC  =   -104174.0781  EHBOND  =         0.0000  RESTRAINT  =        28.0466
 EAMBER (non-restraint)  =    -80464.9429
 EKCMT  =      5344.5705  VIRIAL  =      5390.1626  VOLUME     =    209593.6382
                                                    Density    =         1.0541
 ------------------------------------------------------------------------------

      R M S  F L U C T U A T I O N S

 NSTEP =    50000   TIME(PS) =    4300.000  TEMP(K) =     2.03  PRESS =   177.5
 Etot   =       137.0306  EKtot   =        90.0280  EPtot      =       112.7432
 BOND   =        21.8818  ANGLE   =        29.3601  DIHED      =        15.8522
 UB     =         0.0000  IMP     =         0.0000  CMAP       =         7.2865
 1-4 NB =        11.0063  1-4 EEL =        30.5379  VDWAALS    =       127.7613
 EELEC  =       198.8773  EHBOND  =         0.0000  RESTRAINT  =         2.9709
 EAMBER (non-restraint)  =       109.7724
 EKCMT  =        58.1232  VIRIAL  =       798.5787  VOLUME     =       342.1710
                                                    Density    =         0.0017
 ------------------------------------------------------------------------------
