-------------------------------------------------------
          Amber 18 PMEMD                              2018
          -------------------------------------------------------

  [-O]verwriting output

File Assignments:

 Here is the input file:

Equilibration with solute restrictions
&cntrl
imin = 0,                           ! No Minimization
nmropt = 0,                         ! No NMR restraints read

! Nature and format of the input
ntx = 5,                            ! Coordinates and velocities will be read
irest = 1,                          ! Do not run a new simulation

! Nature and format of the output
ntxo = 1,                           ! rstrt file in ASCII format
ntpr = 500,                         ! inf in output every ntpr steps
ntwr = 500,                         ! rstrt file every ntwr steps
ntwx = 500,                         ! mdcrd file every ntwx steps
ntwv = 0,                           ! mdvel without velocities
ntwe = 0,                           ! Do not write energies and temperatures
idecomp = 0,                        ! No energy decomposition
iwrap = 1,                          ! Coordinates of the restart and mdcrd file

! Frozen or restrained atoms
ibelly = 0,                         ! No frozen atoms
ntr=1,                              ! Harmonic potential restraints
restraint_wt = 0.18,                ! The weight for the positional restraints
restraintmask = ':1-204@N,CA,C,O',  ! restrained residues

! Molecular dynamics
nstlim = 50000,                     ! Number of MD-steps
dt = 0.002,                         ! Time step

! Temperature regulation
ntt = 3,                            ! Langevin thermostat
gamma_ln = 5,                       ! Gamma constant for Langevin
temp0 = 300.0,                      ! Reference T at which the system is to be
tempi = 300.0,                      ! Initial T
ig = -1,                            ! Seed for the RNG

! P and V regulation
ntp = 1,                            ! constant P
barostat = 1,                       ! Berendsen barostat
taup = 1,                           ! Pressure relaxation time
ntb = 2,                            ! Periodic box for constant P

! SHAKE variables
ntc = 2,                            ! Bonds involving H are constrained
ntf = 2,                            ! Bond interaction involving H are ommited.

cut = 11.0,                         ! Nonbonded cutoff
/
&end

Note: ig = -1. Setting random seed to   700015 based on wallclock time in
      microseconds.

--------------------------------------------------------------------------------
   1.  RESOURCE   USE:
--------------------------------------------------------------------------------

 getting new box info from bottom of inpcrd
 NATOM  =   26948 NTYPES =      19 NBONH =   19404 MBONA  =    7572
 NTHETH =    3538 MTHETA =    2210 NPHIH =    7248 MPHIA  =    7124
 NHPARM =       0 NPARM  =       0 NNB   =   59014 NRES   =    6152
 NBONA  =    7572 NTHETA =    2210 NPHIA =    7124 NUMBND =      73
 NUMANG =     167 NPTRA  =     191 NATYP =      38 NPHB   =       1
 IFBOX  =       2 NMXRS  =      24 IFCAP =       0 NEXTRA =    5946
 NCOPY  =       0

     BOX TYPE: TRUNCATED OCTAHEDRON

--------------------------------------------------------------------------------
   2.  CONTROL  DATA  FOR  THE  RUN
--------------------------------------------------------------------------------

default_name

General flags:
     imin    =       0, nmropt  =       0

Nature and format of input:
     ntx     =       5, irest   =       1, ntrx    =       1

Nature and format of output:
     ntxo    =       1, ntpr    =     500, ntrx    =       1, ntwr    =     500
     iwrap   =       1, ntwx    =     500, ntwv    =       0, ntwe    =       0
     ioutfm  =       1, ntwprt  =       0, idecomp =       0, rbornstat=      0

Potential function:
     ntf     =       2, ntb     =       2, igb     =       0, nsnb    =      25
     ipol    =       0, gbsa    =       0, iesp    =       0
     dielc   =   1.00000, cut     =  11.00000, intdiel =   1.00000

Frozen or restrained atoms:
     ibelly  =       0, ntr     =       1
     restraint_wt =   0.18000

Molecular dynamics:
     nstlim  =     50000, nscm    =         0, nrespa  =         1
     t       =   0.00000, dt      =   0.00200, vlimit  =  -1.00000

Langevin dynamics temperature regulation:
     ig      =  700015
     temp0   = 300.00000, tempi   = 300.00000, gamma_ln=   5.00000

Pressure regulation:
     ntp     =       1
     pres0   =   1.00000, comp    =  44.60000, taup    =   1.00000

SHAKE:
     ntc     =       2, jfastw  =       0
     tol     =   0.00001

Extra-points options:
     frameon =       1, chngmask=       1

Ewald parameters:
     verbose =       0, ew_type =       0, nbflag  =       1, use_pme =       1
     vdwmeth =       1, eedmeth =       1, netfrc  =       1
     Box X =   64.464   Box Y =   64.464   Box Z =   64.464
     Alpha =  109.471   Beta  =  109.471   Gamma =  109.471
     NFFT1 =   64       NFFT2 =   64       NFFT3 =   64
     Cutoff=   11.000   Tol   =0.100E-04
     Ewald Coefficient =  0.24861
     Interpolation order =    4

    LOADING THE CONSTRAINED ATOMS AS GROUPS

   5.  REFERENCE ATOM COORDINATES

  default_name
     Mask :1-204@N,CA,C,O; matches   816 atoms

--------------------------------------------------------------------------------
   3.  ATOMIC COORDINATES AND VELOCITIES
--------------------------------------------------------------------------------

default_name
 begin time read from input coords =  3500.000 ps

 Number of triangulated 3-point waters found:     5946

     Sum of charges from parm topology file =   0.00003251
     Forcing neutrality...

--------------------------------------------------------------------------------
   4.  RESULTS
 NSTEP =      500   TIME(PS) =    3501.000  TEMP(K) =   298.74  PRESS =   -77.8
 Etot   =    -66265.5922  EKtot   =     12942.1152  EPtot      =    -79207.7075
 BOND   =       607.9923  ANGLE   =      1596.9880  DIHED      =      1111.4499
 UB     =         0.0000  IMP     =         0.0000  CMAP       =       178.3433
 1-4 NB =       701.4474  1-4 EEL =      9707.7053  VDWAALS    =      8675.0203
 EELEC  =   -101808.1126  EHBOND  =         0.0000  RESTRAINT  =        21.4586
 EAMBER (non-restraint)  =    -79229.1661
 EKCMT  =      5264.7546  VIRIAL  =      5611.6150  VOLUME     =    206477.1489
                                                    Density    =         1.0453
 ------------------------------------------------------------------------------

      A V E R A G E S   O V E R     100 S T E P S

 NSTEP =    50000   TIME(PS) =    3600.000  TEMP(K) =   300.01  PRESS =    -2.7
 Etot   =    -66342.9657  EKtot   =     12997.0471  EPtot      =    -79340.0127
 BOND   =       593.7011  ANGLE   =      1572.6174  DIHED      =      1134.0387
 UB     =         0.0000  IMP     =         0.0000  CMAP       =       164.5154
 1-4 NB =       720.3234  1-4 EEL =      9746.0412  VDWAALS    =      8496.5139
 EELEC  =   -101796.0046  EHBOND  =         0.0000  RESTRAINT  =        28.2407
 EAMBER (non-restraint)  =    -79368.2535
 EKCMT  =      5333.4676  VIRIAL  =      5345.3997  VOLUME     =    206040.6120
                                                    Density    =         1.0475
 ------------------------------------------------------------------------------

      R M S  F L U C T U A T I O N S

 NSTEP =    50000   TIME(PS) =    3600.000  TEMP(K) =     2.03  PRESS =   149.2
 Etot   =       158.0538  EKtot   =        87.8260  EPtot      =       137.0365
 BOND   =        18.6547  ANGLE   =        31.0102  DIHED      =        15.0383
 UB     =         0.0000  IMP     =         0.0000  CMAP       =         5.7887
 1-4 NB =        12.5529  1-4 EEL =        28.7656  VDWAALS    =       124.5525
 EELEC  =       207.9607  EHBOND  =         0.0000  RESTRAINT  =         3.7388
 EAMBER (non-restraint)  =       133.2977
 EKCMT  =        54.4265  VIRIAL  =       665.1620  VOLUME     =       319.1827
                                                    Density    =         0.0016
 ------------------------------------------------------------------------------
