-------------------------------------------------------
          Amber 18 PMEMD                              2018
          -------------------------------------------------------

  [-O]verwriting output

File Assignments:

 Here is the input file:

Equilibration with solute restrictions
&cntrl
imin = 0,                           ! No Minimization
nmropt = 0,                         ! No NMR restraints read

! Nature and format of the input
ntx = 5,                            ! Coordinates and velocities will be read
irest = 1,                          ! Do not run a new simulation

! Nature and format of the output
ntxo = 1,                           ! rstrt file in ASCII format
ntpr = 500,                         ! inf in output every ntpr steps
ntwr = 500,                         ! rstrt file every ntwr steps
ntwx = 500,                         ! mdcrd file every ntwx steps
ntwv = 0,                           ! mdvel without velocities
ntwe = 0,                           ! Do not write energies and temperatures
idecomp = 0,                        ! No energy decomposition
iwrap = 1,                          ! Coordinates of the restart and mdcrd file

! Frozen or restrained atoms
ibelly = 0,                         ! No frozen atoms
ntr=1,                              ! Harmonic potential restraints
restraint_wt = 0.035,                ! The weight for the positional restraints
restraintmask = ':1-204@N,CA,C,O',  ! restrained residues

! Molecular dynamics
nstlim = 50000,                     ! Number of MD-steps
dt = 0.002,                         ! Time step

! Temperature regulation
ntt = 3,                            ! Langevin thermostat
gamma_ln = 5,                       ! Gamma constant for Langevin
temp0 = 300.0,                      ! Reference T at which the system is to be
tempi = 300.0,                      ! Initial T
ig = -1,                            ! Seed for the RNG

! P and V regulation
ntp = 1,                            ! constant P
barostat = 1,                       ! Berendsen barostat
taup = 1,                           ! Pressure relaxation time
ntb = 2,                            ! Periodic box for constant P

! SHAKE variables
ntc = 2,                            ! Bonds involving H are constrained
ntf = 2,                            ! Bond interaction involving H are ommited.

cut = 11.0,                         ! Nonbonded cutoff
/
&end

Note: ig = -1. Setting random seed to    14794 based on wallclock time in
      microseconds.

--------------------------------------------------------------------------------
   1.  RESOURCE   USE:
--------------------------------------------------------------------------------

 getting new box info from bottom of inpcrd
 NATOM  =   26948 NTYPES =      19 NBONH =   19404 MBONA  =    7572
 NTHETH =    3538 MTHETA =    2210 NPHIH =    7248 MPHIA  =    7124
 NHPARM =       0 NPARM  =       0 NNB   =   59014 NRES   =    6152
 NBONA  =    7572 NTHETA =    2210 NPHIA =    7124 NUMBND =      73
 NUMANG =     167 NPTRA  =     191 NATYP =      38 NPHB   =       1
 IFBOX  =       2 NMXRS  =      24 IFCAP =       0 NEXTRA =    5946
 NCOPY  =       0

     BOX TYPE: TRUNCATED OCTAHEDRON

--------------------------------------------------------------------------------
   2.  CONTROL  DATA  FOR  THE  RUN
--------------------------------------------------------------------------------

default_name

General flags:
     imin    =       0, nmropt  =       0

Nature and format of input:
     ntx     =       5, irest   =       1, ntrx    =       1

Nature and format of output:
     ntxo    =       1, ntpr    =     500, ntrx    =       1, ntwr    =     500
     iwrap   =       1, ntwx    =     500, ntwv    =       0, ntwe    =       0
     ioutfm  =       1, ntwprt  =       0, idecomp =       0, rbornstat=      0

Potential function:
     ntf     =       2, ntb     =       2, igb     =       0, nsnb    =      25
     ipol    =       0, gbsa    =       0, iesp    =       0
     dielc   =   1.00000, cut     =  11.00000, intdiel =   1.00000

Frozen or restrained atoms:
     ibelly  =       0, ntr     =       1
     restraint_wt =   0.03500

Molecular dynamics:
     nstlim  =     50000, nscm    =         0, nrespa  =         1
     t       =   0.00000, dt      =   0.00200, vlimit  =  -1.00000

Langevin dynamics temperature regulation:
     ig      =   14794
     temp0   = 300.00000, tempi   = 300.00000, gamma_ln=   5.00000

Pressure regulation:
     ntp     =       1
     pres0   =   1.00000, comp    =  44.60000, taup    =   1.00000

SHAKE:
     ntc     =       2, jfastw  =       0
     tol     =   0.00001

Extra-points options:
     frameon =       1, chngmask=       1

Ewald parameters:
     verbose =       0, ew_type =       0, nbflag  =       1, use_pme =       1
     vdwmeth =       1, eedmeth =       1, netfrc  =       1
     Box X =   64.447   Box Y =   64.447   Box Z =   64.447
     Alpha =  109.471   Beta  =  109.471   Gamma =  109.471
     NFFT1 =   64       NFFT2 =   64       NFFT3 =   64
     Cutoff=   11.000   Tol   =0.100E-04
     Ewald Coefficient =  0.24861
     Interpolation order =    4

    LOADING THE CONSTRAINED ATOMS AS GROUPS

   5.  REFERENCE ATOM COORDINATES

  default_name
     Mask :1-204@N,CA,C,O; matches   816 atoms

--------------------------------------------------------------------------------
   3.  ATOMIC COORDINATES AND VELOCITIES
--------------------------------------------------------------------------------

default_name
 begin time read from input coords =  5100.000 ps

 Number of triangulated 3-point waters found:     5946

     Sum of charges from parm topology file =   0.00003251
     Forcing neutrality...

--------------------------------------------------------------------------------
   4.  RESULTS
 NSTEP =      500   TIME(PS) =    5101.000  TEMP(K) =   298.96  PRESS =   109.4
 Etot   =    -66560.1503  EKtot   =     12951.9727  EPtot      =    -79512.1229
 BOND   =       562.3379  ANGLE   =      1612.7465  DIHED      =      1121.9976
 UB     =         0.0000  IMP     =         0.0000  CMAP       =       158.9066
 1-4 NB =       722.2105  1-4 EEL =      9739.5045  VDWAALS    =      8616.5440
 EELEC  =   -102051.5483  EHBOND  =         0.0000  RESTRAINT  =         5.1778
 EAMBER (non-restraint)  =    -79517.3007
 EKCMT  =      5216.2552  VIRIAL  =      4728.7700  VOLUME     =    206324.4026
                                                    Density    =         1.0460
 ------------------------------------------------------------------------------

      A V E R A G E S   O V E R     100 S T E P S

 NSTEP =    50000   TIME(PS) =    5200.000  TEMP(K) =   300.02  PRESS =    23.5
 Etot   =    -66345.5462  EKtot   =     12997.5559  EPtot      =    -79343.1021
 BOND   =       595.0211  ANGLE   =      1574.4941  DIHED      =      1135.6568
 UB     =         0.0000  IMP     =         0.0000  CMAP       =       161.3437
 1-4 NB =       719.9803  1-4 EEL =      9743.2837  VDWAALS    =      8466.5816
 EELEC  =   -101750.6131  EHBOND  =         0.0000  RESTRAINT  =        11.1497
 EAMBER (non-restraint)  =    -79354.2518
 EKCMT  =      5336.2970  VIRIAL  =      5232.0496  VOLUME     =    205811.6336
                                                    Density    =         1.0486
 ------------------------------------------------------------------------------

      R M S  F L U C T U A T I O N S

 NSTEP =    50000   TIME(PS) =    5200.000  TEMP(K) =     1.99  PRESS =   154.3
 Etot   =       165.5032  EKtot   =        86.0296  EPtot      =       132.4312
 BOND   =        20.2171  ANGLE   =        32.0419  DIHED      =        15.6595
 UB     =         0.0000  IMP     =         0.0000  CMAP       =         6.2259
 1-4 NB =        10.2530  1-4 EEL =        31.4163  VDWAALS    =       119.6864
 EELEC  =       198.4259  EHBOND  =         0.0000  RESTRAINT  =         2.1031
 EAMBER (non-restraint)  =       130.3281
 EKCMT  =        56.5256  VIRIAL  =       687.5945  VOLUME     =       387.7145
                                                    Density    =         0.0020
 ------------------------------------------------------------------------------
