-------------------------------------------------------
          Amber 18 PMEMD                              2018
          -------------------------------------------------------

  [-O]verwriting output

File Assignments:

 Here is the input file:

Equilibration with solute restrictions
&cntrl
imin = 0,                           ! No Minimization
nmropt = 0,                         ! No NMR restraints read

! Nature and format of the input
ntx = 5,                            ! Coordinates and velocities will be read
irest = 1,                          ! Do not run a new simulation

! Nature and format of the output
ntxo = 1,                           ! rstrt file in ASCII format
ntpr = 500,                         ! inf in output every ntpr steps
ntwr = 500,                         ! rstrt file every ntwr steps
ntwx = 500,                         ! mdcrd file every ntwx steps
ntwv = 0,                           ! mdvel without velocities
ntwe = 0,                           ! Do not write energies and temperatures
idecomp = 0,                        ! No energy decomposition
iwrap = 1,                          ! Coordinates of the restart and mdcrd file

! Frozen or restrained atoms
ibelly = 0,                         ! No frozen atoms
ntr=1,                              ! Harmonic potential restraints
restraint_wt = 0.0025,                ! The weight for the positional restraint
restraintmask = ':1-204@N,CA,C,O',  ! restrained residues

! Molecular dynamics
nstlim = 50000,                     ! Number of MD-steps
dt = 0.002,                         ! Time step

! Temperature regulation
ntt = 3,                            ! Langevin thermostat
gamma_ln = 5,                       ! Gamma constant for Langevin
temp0 = 300.0,                      ! Reference T at which the system is to be
tempi = 300.0,                      ! Initial T
ig = -1,                            ! Seed for the RNG

! P and V regulation
ntp = 1,                            ! constant P
barostat = 1,                       ! Berendsen barostat
taup = 1,                           ! Pressure relaxation time
ntb = 2,                            ! Periodic box for constant P

! SHAKE variables
ntc = 2,                            ! Bonds involving H are constrained
ntf = 2,                            ! Bond interaction involving H are ommited.

cut = 11.0,                         ! Nonbonded cutoff
/
&end

Note: ig = -1. Setting random seed to   404324 based on wallclock time in
      microseconds.

--------------------------------------------------------------------------------
   1.  RESOURCE   USE:
--------------------------------------------------------------------------------

 getting new box info from bottom of inpcrd
 NATOM  =   26948 NTYPES =      19 NBONH =   19404 MBONA  =    7572
 NTHETH =    3538 MTHETA =    2210 NPHIH =    7248 MPHIA  =    7124
 NHPARM =       0 NPARM  =       0 NNB   =   59014 NRES   =    6152
 NBONA  =    7572 NTHETA =    2210 NPHIA =    7124 NUMBND =      73
 NUMANG =     167 NPTRA  =     191 NATYP =      38 NPHB   =       1
 IFBOX  =       2 NMXRS  =      24 IFCAP =       0 NEXTRA =    5946
 NCOPY  =       0

     BOX TYPE: TRUNCATED OCTAHEDRON

--------------------------------------------------------------------------------
   2.  CONTROL  DATA  FOR  THE  RUN
--------------------------------------------------------------------------------

default_name

General flags:
     imin    =       0, nmropt  =       0

Nature and format of input:
     ntx     =       5, irest   =       1, ntrx    =       1

Nature and format of output:
     ntxo    =       1, ntpr    =     500, ntrx    =       1, ntwr    =     500
     iwrap   =       1, ntwx    =     500, ntwv    =       0, ntwe    =       0
     ioutfm  =       1, ntwprt  =       0, idecomp =       0, rbornstat=      0

Potential function:
     ntf     =       2, ntb     =       2, igb     =       0, nsnb    =      25
     ipol    =       0, gbsa    =       0, iesp    =       0
     dielc   =   1.00000, cut     =  11.00000, intdiel =   1.00000

Frozen or restrained atoms:
     ibelly  =       0, ntr     =       1
     restraint_wt =   0.00250

Molecular dynamics:
     nstlim  =     50000, nscm    =         0, nrespa  =         1
     t       =   0.00000, dt      =   0.00200, vlimit  =  -1.00000

Langevin dynamics temperature regulation:
     ig      =  404324
     temp0   = 300.00000, tempi   = 300.00000, gamma_ln=   5.00000

Pressure regulation:
     ntp     =       1
     pres0   =   1.00000, comp    =  44.60000, taup    =   1.00000

SHAKE:
     ntc     =       2, jfastw  =       0
     tol     =   0.00001

Extra-points options:
     frameon =       1, chngmask=       1

Ewald parameters:
     verbose =       0, ew_type =       0, nbflag  =       1, use_pme =       1
     vdwmeth =       1, eedmeth =       1, netfrc  =       1
     Box X =   64.431   Box Y =   64.431   Box Z =   64.431
     Alpha =  109.471   Beta  =  109.471   Gamma =  109.471
     NFFT1 =   64       NFFT2 =   64       NFFT3 =   64
     Cutoff=   11.000   Tol   =0.100E-04
     Ewald Coefficient =  0.24861
     Interpolation order =    4

    LOADING THE CONSTRAINED ATOMS AS GROUPS

   5.  REFERENCE ATOM COORDINATES

  default_name
     Mask :1-204@N,CA,C,O; matches   816 atoms

--------------------------------------------------------------------------------
   3.  ATOMIC COORDINATES AND VELOCITIES
--------------------------------------------------------------------------------

default_name
 begin time read from input coords =  7100.000 ps

 Number of triangulated 3-point waters found:     5946

     Sum of charges from parm topology file =   0.00003251
     Forcing neutrality...

--------------------------------------------------------------------------------
   4.  RESULTS
 NSTEP =      500   TIME(PS) =    7101.000  TEMP(K) =   304.23  PRESS =   233.6
 Etot   =    -66213.3353  EKtot   =     13180.0859  EPtot      =    -79393.4212
 BOND   =       543.0968  ANGLE   =      1564.7599  DIHED      =      1120.4078
 UB     =         0.0000  IMP     =         0.0000  CMAP       =       154.7253
 1-4 NB =       749.2101  1-4 EEL =      9776.2798  VDWAALS    =      8332.2700
 EELEC  =   -101634.6190  EHBOND  =         0.0000  RESTRAINT  =         0.4482
 EAMBER (non-restraint)  =    -79393.8694
 EKCMT  =      5458.8040  VIRIAL  =      4419.7402  VOLUME     =    205969.0497
                                                    Density    =         1.0478
 ------------------------------------------------------------------------------

      A V E R A G E S   O V E R     100 S T E P S

 NSTEP =    50000   TIME(PS) =    7200.000  TEMP(K) =   299.96  PRESS =   -29.1
 Etot   =    -66388.0501  EKtot   =     12994.9475  EPtot      =    -79382.9976
 BOND   =       598.1594  ANGLE   =      1573.1928  DIHED      =      1135.8832
 UB     =         0.0000  IMP     =         0.0000  CMAP       =       162.7549
 1-4 NB =       719.8102  1-4 EEL =      9713.7937  VDWAALS    =      8454.3324
 EELEC  =   -101742.5424  EHBOND  =         0.0000  RESTRAINT  =         1.6183
 EAMBER (non-restraint)  =    -79384.6160
 EKCMT  =      5338.6032  VIRIAL  =      5467.9683  VOLUME     =    205939.9742
                                                    Density    =         1.0480
 ------------------------------------------------------------------------------

      R M S  F L U C T U A T I O N S

 NSTEP =    50000   TIME(PS) =    7200.000  TEMP(K) =     1.92  PRESS =   172.0
 Etot   =       129.7926  EKtot   =        83.3210  EPtot      =       122.9385
 BOND   =        21.2630  ANGLE   =        34.5129  DIHED      =        14.9891
 UB     =         0.0000  IMP     =         0.0000  CMAP       =         6.5258
 1-4 NB =        11.7733  1-4 EEL =        28.3916  VDWAALS    =       118.3026
 EELEC  =       174.1458  EHBOND  =         0.0000  RESTRAINT  =         0.5403
 EAMBER (non-restraint)  =       122.3982
 EKCMT  =        48.0679  VIRIAL  =       756.7658  VOLUME     =       335.8950
                                                    Density    =         0.0017
 ------------------------------------------------------------------------------
