-------------------------------------------------------
          Amber 18 PMEMD                              2018
          -------------------------------------------------------

  [-O]verwriting output

File Assignments:

 Here is the input file:

Equilibration with solute restrictions
&cntrl
imin = 0,                           ! No Minimization
nmropt = 0,                         ! No NMR restraints read

! Nature and format of the input
ntx = 5,                            ! Coordinates and velocities will be read
irest = 1,                          ! Do not run a new simulation

! Nature and format of the output
ntxo = 1,                           ! rstrt file in ASCII format
ntpr = 500,                         ! inf in output every ntpr steps
ntwr = 500,                         ! rstrt file every ntwr steps
ntwx = 500,                         ! mdcrd file every ntwx steps
ntwv = 0,                           ! mdvel without velocities
ntwe = 0,                           ! Do not write energies and temperatures
idecomp = 0,                        ! No energy decomposition
iwrap = 1,                          ! Coordinates of the restart and mdcrd file

! Frozen or restrained atoms
ibelly = 0,                         ! No frozen atoms
ntr=1,                              ! Harmonic potential restraints
restraint_wt = 0.35,                ! The weight for the positional restraints
restraintmask = ':1-188@N,CA,C,O',  ! restrained residues

! Molecular dynamics
nstlim = 50000,                     ! Number of MD-steps
dt = 0.002,                         ! Time step

! Temperature regulation
ntt = 3,                            ! Langevin thermostat
gamma_ln = 5,                       ! Gamma constant for Langevin
temp0 = 300.0,                      ! Reference T at which the system is to be
tempi = 300.0,                      ! Initial T
ig = -1,                            ! Seed for the RNG

! P and V regulation
ntp = 1,                            ! constant P
barostat = 1,                       ! Berendsen barostat
taup = 1,                           ! Pressure relaxation time
ntb = 2,                            ! Periodic box for constant P

! SHAKE variables
ntc = 2,                            ! Bonds involving H are constrained
ntf = 2,                            ! Bond interaction involving H are ommited.

cut = 11.0,                         ! Nonbonded cutoff
/
&end

Note: ig = -1. Setting random seed to    83301 based on wallclock time in
      microseconds.

--------------------------------------------------------------------------------
   1.  RESOURCE   USE:
--------------------------------------------------------------------------------

 getting new box info from bottom of inpcrd
 NATOM  =   27928 NTYPES =      22 NBONH =   20171 MBONA  =    7787
 NTHETH =    3412 MTHETA =    2100 NPHIH =    6826 MPHIA  =    6560
 NHPARM =       0 NPARM  =       0 NNB   =   60209 NRES   =    6415
 NBONA  =    7787 NTHETA =    2100 NPHIA =    6560 NUMBND =      77
 NUMANG =     177 NPTRA  =     201 NATYP =      41 NPHB   =       1
 IFBOX  =       2 NMXRS  =      24 IFCAP =       0 NEXTRA =    6225
 NCOPY  =       0

     BOX TYPE: TRUNCATED OCTAHEDRON

--------------------------------------------------------------------------------
   2.  CONTROL  DATA  FOR  THE  RUN
--------------------------------------------------------------------------------

default_name

General flags:
     imin    =       0, nmropt  =       0

Nature and format of input:
     ntx     =       5, irest   =       1, ntrx    =       1

Nature and format of output:
     ntxo    =       1, ntpr    =     500, ntrx    =       1, ntwr    =     500
     iwrap   =       1, ntwx    =     500, ntwv    =       0, ntwe    =       0
     ioutfm  =       1, ntwprt  =       0, idecomp =       0, rbornstat=      0

Potential function:
     ntf     =       2, ntb     =       2, igb     =       0, nsnb    =      25
     ipol    =       0, gbsa    =       0, iesp    =       0
     dielc   =   1.00000, cut     =  11.00000, intdiel =   1.00000

Frozen or restrained atoms:
     ibelly  =       0, ntr     =       1
     restraint_wt =   0.35000

Molecular dynamics:
     nstlim  =     50000, nscm    =         0, nrespa  =         1
     t       =   0.00000, dt      =   0.00200, vlimit  =  -1.00000

Langevin dynamics temperature regulation:
     ig      =   83301
     temp0   = 300.00000, tempi   = 300.00000, gamma_ln=   5.00000

Pressure regulation:
     ntp     =       1
     pres0   =   1.00000, comp    =  44.60000, taup    =   1.00000

SHAKE:
     ntc     =       2, jfastw  =       0
     tol     =   0.00001

Extra-points options:
     frameon =       1, chngmask=       1

Ewald parameters:
     verbose =       0, ew_type =       0, nbflag  =       1, use_pme =       1
     vdwmeth =       1, eedmeth =       1, netfrc  =       1
     Box X =   65.177   Box Y =   65.177   Box Z =   65.177
     Alpha =  109.471   Beta  =  109.471   Gamma =  109.471
     NFFT1 =   64       NFFT2 =   64       NFFT3 =   64
     Cutoff=   11.000   Tol   =0.100E-04
     Ewald Coefficient =  0.24861
     Interpolation order =    4

    LOADING THE CONSTRAINED ATOMS AS GROUPS

   5.  REFERENCE ATOM COORDINATES

  default_name
     Mask :1-188@N,CA,C,O; matches   752 atoms

--------------------------------------------------------------------------------
   3.  ATOMIC COORDINATES AND VELOCITIES
--------------------------------------------------------------------------------

default_name
 begin time read from input coords =  3000.000 ps

 Number of triangulated 3-point waters found:     6225

     Sum of charges from parm topology file =   0.00003399
     Forcing neutrality...

--------------------------------------------------------------------------------
   4.  RESULTS
 NSTEP =      500   TIME(PS) =    3001.000  TEMP(K) =   298.06  PRESS =    74.1
 Etot   =    -69643.9489  EKtot   =     13308.4619  EPtot      =    -82952.4108
 BOND   =       585.6198  ANGLE   =      1608.2606  DIHED      =      1062.7210
 UB     =         0.0000  IMP     =         0.0000  CMAP       =       137.2815
 1-4 NB =       676.0640  1-4 EEL =     10133.5144  VDWAALS    =      9256.8186
 EELEC  =   -106442.3969  EHBOND  =         0.0000  RESTRAINT  =        29.7063
 EAMBER (non-restraint)  =    -82982.1171
 EKCMT  =      5563.6492  VIRIAL  =      5222.9953  VOLUME     =    212942.8909
                                                    Density    =         1.0449
 ------------------------------------------------------------------------------

      A V E R A G E S   O V E R     100 S T E P S

 NSTEP =    50000   TIME(PS) =    3100.000  TEMP(K) =   300.06  PRESS =    11.8
 Etot   =    -69496.7328  EKtot   =     13397.9130  EPtot      =    -82894.6458
 BOND   =       569.0180  ANGLE   =      1625.7547  DIHED      =      1078.7048
 UB     =         0.0000  IMP     =         0.0000  CMAP       =       143.2467
 1-4 NB =       664.8757  1-4 EEL =     10137.8845  VDWAALS    =      9043.8708
 EELEC  =   -106195.0682  EHBOND  =         0.0000  RESTRAINT  =        37.0672
 EAMBER (non-restraint)  =    -82931.7130
 EKCMT  =      5587.0610  VIRIAL  =      5533.0477  VOLUME     =    212557.2449
                                                    Density    =         1.0468
 ------------------------------------------------------------------------------

      R M S  F L U C T U A T I O N S

 NSTEP =    50000   TIME(PS) =    3100.000  TEMP(K) =     1.91  PRESS =   164.7
 Etot   =       173.7509  EKtot   =        85.1670  EPtot      =       141.6598
 BOND   =        20.1961  ANGLE   =        29.7301  DIHED      =        16.4587
 UB     =         0.0000  IMP     =         0.0000  CMAP       =         5.3310
 1-4 NB =        10.5631  1-4 EEL =        23.8097  VDWAALS    =       127.0982
 EELEC  =       207.0376  EHBOND  =         0.0000  RESTRAINT  =         3.3540
 EAMBER (non-restraint)  =       138.3058
 EKCMT  =        58.0871  VIRIAL  =       760.2866  VOLUME     =       372.4457
                                                    Density    =         0.0018
 ------------------------------------------------------------------------------
