-------------------------------------------------------
          Amber 18 PMEMD                              2018
          -------------------------------------------------------

  [-O]verwriting output

File Assignments:

 Here is the input file:

Equilibration with solute restrictions
&cntrl
imin = 0,                           ! No Minimization
nmropt = 0,                         ! No NMR restraints read

! Nature and format of the input
ntx = 5,                            ! Coordinates and velocities will be read
irest = 1,                          ! Do not run a new simulation

! Nature and format of the output
ntxo = 1,                           ! rstrt file in ASCII format
ntpr = 500,                         ! inf in output every ntpr steps
ntwr = 500,                         ! rstrt file every ntwr steps
ntwx = 500,                         ! mdcrd file every ntwx steps
ntwv = 0,                           ! mdvel without velocities
ntwe = 0,                           ! Do not write energies and temperatures
idecomp = 0,                        ! No energy decomposition
iwrap = 1,                          ! Coordinates of the restart and mdcrd file

! Frozen or restrained atoms
ibelly = 0,                         ! No frozen atoms
ntr=1,                              ! Harmonic potential restraints
restraint_wt = 0.020,                ! The weight for the positional restraints
restraintmask = ':1-188@N,CA,C,O',  ! restrained residues

! Molecular dynamics
nstlim = 50000,                     ! Number of MD-steps
dt = 0.002,                         ! Time step

! Temperature regulation
ntt = 3,                            ! Langevin thermostat
gamma_ln = 5,                       ! Gamma constant for Langevin
temp0 = 300.0,                      ! Reference T at which the system is to be
tempi = 300.0,                      ! Initial T
ig = -1,                            ! Seed for the RNG

! P and V regulation
ntp = 1,                            ! constant P
barostat = 1,                       ! Berendsen barostat
taup = 1,                           ! Pressure relaxation time
ntb = 2,                            ! Periodic box for constant P

! SHAKE variables
ntc = 2,                            ! Bonds involving H are constrained
ntf = 2,                            ! Bond interaction involving H are ommited.

cut = 11.0,                         ! Nonbonded cutoff
/
&end

Note: ig = -1. Setting random seed to   605216 based on wallclock time in
      microseconds.

--------------------------------------------------------------------------------
   1.  RESOURCE   USE:
--------------------------------------------------------------------------------

 getting new box info from bottom of inpcrd
 NATOM  =   28674 NTYPES =      19 NBONH =   20726 MBONA  =    7978
 NTHETH =    3446 MTHETA =    2124 NPHIH =    6994 MPHIA  =    6670
 NHPARM =       0 NPARM  =       0 NNB   =   61668 NRES   =    6592
 NBONA  =    7978 NTHETA =    2124 NPHIA =    6670 NUMBND =      73
 NUMANG =     172 NPTRA  =     191 NATYP =      38 NPHB   =       1
 IFBOX  =       2 NMXRS  =      24 IFCAP =       0 NEXTRA =    6402
 NCOPY  =       0

     BOX TYPE: TRUNCATED OCTAHEDRON

--------------------------------------------------------------------------------
   2.  CONTROL  DATA  FOR  THE  RUN
--------------------------------------------------------------------------------

default_name

General flags:
     imin    =       0, nmropt  =       0

Nature and format of input:
     ntx     =       5, irest   =       1, ntrx    =       1

Nature and format of output:
     ntxo    =       1, ntpr    =     500, ntrx    =       1, ntwr    =     500
     iwrap   =       1, ntwx    =     500, ntwv    =       0, ntwe    =       0
     ioutfm  =       1, ntwprt  =       0, idecomp =       0, rbornstat=      0

Potential function:
     ntf     =       2, ntb     =       2, igb     =       0, nsnb    =      25
     ipol    =       0, gbsa    =       0, iesp    =       0
     dielc   =   1.00000, cut     =  11.00000, intdiel =   1.00000

Frozen or restrained atoms:
     ibelly  =       0, ntr     =       1
     restraint_wt =   0.02000

Molecular dynamics:
     nstlim  =     50000, nscm    =         0, nrespa  =         1
     t       =   0.00000, dt      =   0.00200, vlimit  =  -1.00000

Langevin dynamics temperature regulation:
     ig      =  605216
     temp0   = 300.00000, tempi   = 300.00000, gamma_ln=   5.00000

Pressure regulation:
     ntp     =       1
     pres0   =   1.00000, comp    =  44.60000, taup    =   1.00000

SHAKE:
     ntc     =       2, jfastw  =       0
     tol     =   0.00001

Extra-points options:
     frameon =       1, chngmask=       1

Ewald parameters:
     verbose =       0, ew_type =       0, nbflag  =       1, use_pme =       1
     vdwmeth =       1, eedmeth =       1, netfrc  =       1
     Box X =   65.665   Box Y =   65.665   Box Z =   65.665
     Alpha =  109.471   Beta  =  109.471   Gamma =  109.471
     NFFT1 =   64       NFFT2 =   64       NFFT3 =   64
     Cutoff=   11.000   Tol   =0.100E-04
     Ewald Coefficient =  0.24861
     Interpolation order =    4

    LOADING THE CONSTRAINED ATOMS AS GROUPS

   5.  REFERENCE ATOM COORDINATES

  default_name
     Mask :1-188@N,CA,C,O; matches   752 atoms

--------------------------------------------------------------------------------
   3.  ATOMIC COORDINATES AND VELOCITIES
--------------------------------------------------------------------------------

default_name
 begin time read from input coords =  5400.000 ps

 Number of triangulated 3-point waters found:     6402

     Sum of charges from parm topology file =   0.00003498
     Forcing neutrality...

--------------------------------------------------------------------------------
   4.  RESULTS
 NSTEP =      500   TIME(PS) =    5401.000  TEMP(K) =   301.33  PRESS =     5.5
 Etot   =    -71302.9496  EKtot   =     13799.5420  EPtot      =    -85102.4916
 BOND   =       600.0449  ANGLE   =      1507.6910  DIHED      =      1054.3300
 UB     =         0.0000  IMP     =         0.0000  CMAP       =       152.8893
 1-4 NB =       686.5547  1-4 EEL =      9080.7239  VDWAALS    =      9323.3594
 EELEC  =   -107510.9418  EHBOND  =         0.0000  RESTRAINT  =         2.8569
 EAMBER (non-restraint)  =    -85105.3485
 EKCMT  =      5753.7753  VIRIAL  =      5727.7944  VOLUME     =    217981.2135
                                                    Density    =         1.0461
 ------------------------------------------------------------------------------

      A V E R A G E S   O V E R     100 S T E P S

 NSTEP =    50000   TIME(PS) =    5500.000  TEMP(K) =   299.77  PRESS =    14.2
 Etot   =    -71357.5758  EKtot   =     13727.9919  EPtot      =    -85085.5676
 BOND   =       575.4180  ANGLE   =      1564.1759  DIHED      =      1066.8448
 UB     =         0.0000  IMP     =         0.0000  CMAP       =       149.1424
 1-4 NB =       695.3939  1-4 EEL =      9097.0685  VDWAALS    =      9409.6083
 EELEC  =   -107648.6822  EHBOND  =         0.0000  RESTRAINT  =         5.4627
 EAMBER (non-restraint)  =    -85091.0304
 EKCMT  =      5741.0658  VIRIAL  =      5674.2932  VOLUME     =    218643.7380
                                                    Density    =         1.0429
 ------------------------------------------------------------------------------

      R M S  F L U C T U A T I O N S

 NSTEP =    50000   TIME(PS) =    5500.000  TEMP(K) =     2.12  PRESS =   162.7
 Etot   =       187.1725  EKtot   =        97.0678  EPtot      =       157.9664
 BOND   =        17.9851  ANGLE   =        28.4250  DIHED      =        14.4582
 UB     =         0.0000  IMP     =         0.0000  CMAP       =         5.7641
 1-4 NB =        10.6694  1-4 EEL =        27.8318  VDWAALS    =       125.5697
 EELEC  =       215.2055  EHBOND  =         0.0000  RESTRAINT  =         0.9470
 EAMBER (non-restraint)  =       157.0194
 EKCMT  =        61.5031  VIRIAL  =       774.6675  VOLUME     =       436.5117
                                                    Density    =         0.0021
 ------------------------------------------------------------------------------
