-------------------------------------------------------
          Amber 18 PMEMD                              2018
          -------------------------------------------------------

  [-O]verwriting output

File Assignments:

 Here is the input file:

Equilibration with solute restrictions
&cntrl
imin = 0,                           ! No Minimization
nmropt = 0,                         ! No NMR restraints read

! Nature and format of the input
ntx = 5,                            ! Coordinates and velocities will be read
irest = 1,                          ! Do not run a new simulation

! Nature and format of the output
ntxo = 1,                           ! rstrt file in ASCII format
ntpr = 500,                         ! inf in output every ntpr steps
ntwr = 500,                         ! rstrt file every ntwr steps
ntwx = 500,                         ! mdcrd file every ntwx steps
ntwv = 0,                           ! mdvel without velocities
ntwe = 0,                           ! Do not write energies and temperatures
idecomp = 0,                        ! No energy decomposition
iwrap = 1,                          ! Coordinates of the restart and mdcrd file

! Frozen or restrained atoms
ibelly = 0,                         ! No frozen atoms
ntr=1,                              ! Harmonic potential restraints
restraint_wt = 5.5,                ! The weight for the positional restraints
restraintmask = ':1-170@N,CA,C,O',  ! restrained residues

! Molecular dynamics
nstlim = 50000,                     ! Number of MD-steps
dt = 0.002,                         ! Time step

! Temperature regulation
ntt = 3,                            ! Langevin thermostat
gamma_ln = 5,                       ! Gamma constant for Langevin
temp0 = 300.0,                      ! Reference T at which the system is to be
tempi = 300.0,                      ! Initial T
ig = -1,                            ! Seed for the RNG

! P and V regulation
ntp = 1,                            ! constant P
barostat = 1,                       ! Berendsen barostat
taup = 1,                           ! Pressure relaxation time
ntb = 2,                            ! Periodic box for constant P

! SHAKE variables
ntc = 2,                            ! Bonds involving H are constrained
ntf = 2,                            ! Bond interaction involving H are ommited.

cut = 11.0,                         ! Nonbonded cutoff
/
&end

Note: ig = -1. Setting random seed to   109757 based on wallclock time in
      microseconds.

--------------------------------------------------------------------------------
   1.  RESOURCE   USE:
--------------------------------------------------------------------------------

 getting new box info from bottom of inpcrd
 NATOM  =   28320 NTYPES =      18 NBONH =   20536 MBONA  =    7816
 NTHETH =    3106 MTHETA =    1920 NPHIH =    6248 MPHIA  =    6024
 NHPARM =       0 NPARM  =       0 NNB   =   59928 NRES   =    6560
 NBONA  =    7816 NTHETA =    1920 NPHIA =    6024 NUMBND =      72
 NUMANG =     163 NPTRA  =     189 NATYP =      37 NPHB   =       1
 IFBOX  =       2 NMXRS  =      24 IFCAP =       0 NEXTRA =    6390
 NCOPY  =       0

     BOX TYPE: TRUNCATED OCTAHEDRON

--------------------------------------------------------------------------------
   2.  CONTROL  DATA  FOR  THE  RUN
--------------------------------------------------------------------------------

default_name

General flags:
     imin    =       0, nmropt  =       0

Nature and format of input:
     ntx     =       5, irest   =       1, ntrx    =       1

Nature and format of output:
     ntxo    =       1, ntpr    =     500, ntrx    =       1, ntwr    =     500
     iwrap   =       1, ntwx    =     500, ntwv    =       0, ntwe    =       0
     ioutfm  =       1, ntwprt  =       0, idecomp =       0, rbornstat=      0

Potential function:
     ntf     =       2, ntb     =       2, igb     =       0, nsnb    =      25
     ipol    =       0, gbsa    =       0, iesp    =       0
     dielc   =   1.00000, cut     =  11.00000, intdiel =   1.00000

Frozen or restrained atoms:
     ibelly  =       0, ntr     =       1
     restraint_wt =   5.50000

Molecular dynamics:
     nstlim  =     50000, nscm    =         0, nrespa  =         1
     t       =   0.00000, dt      =   0.00200, vlimit  =  -1.00000

Langevin dynamics temperature regulation:
     ig      =  109757
     temp0   = 300.00000, tempi   = 300.00000, gamma_ln=   5.00000

Pressure regulation:
     ntp     =       1
     pres0   =   1.00000, comp    =  44.60000, taup    =   1.00000

SHAKE:
     ntc     =       2, jfastw  =       0
     tol     =   0.00001

Extra-points options:
     frameon =       1, chngmask=       1

Ewald parameters:
     verbose =       0, ew_type =       0, nbflag  =       1, use_pme =       1
     vdwmeth =       1, eedmeth =       1, netfrc  =       1
     Box X =   65.424   Box Y =   65.424   Box Z =   65.424
     Alpha =  109.471   Beta  =  109.471   Gamma =  109.471
     NFFT1 =   64       NFFT2 =   64       NFFT3 =   64
     Cutoff=   11.000   Tol   =0.100E-04
     Ewald Coefficient =  0.24861
     Interpolation order =    4

    LOADING THE CONSTRAINED ATOMS AS GROUPS

   5.  REFERENCE ATOM COORDINATES

  default_name
     Mask :1-170@N,CA,C,O; matches   680 atoms

--------------------------------------------------------------------------------
   3.  ATOMIC COORDINATES AND VELOCITIES
--------------------------------------------------------------------------------

default_name
 begin time read from input coords =  1300.000 ps

 Number of triangulated 3-point waters found:     6390

     Sum of charges from parm topology file =   0.00003493
     Forcing neutrality...

--------------------------------------------------------------------------------
   4.  RESULTS
 NSTEP =      500   TIME(PS) =    1301.000  TEMP(K) =   298.21  PRESS =   -33.5
 Etot   =    -70461.5469  EKtot   =     13408.5898  EPtot      =    -83870.1368
 BOND   =       514.3298  ANGLE   =      1422.9287  DIHED      =       944.1784
 UB     =         0.0000  IMP     =         0.0000  CMAP       =       118.5657
 1-4 NB =       629.8628  1-4 EEL =      8671.4979  VDWAALS    =      9426.0461
 EELEC  =   -105733.4873  EHBOND  =         0.0000  RESTRAINT  =       135.9413
 EAMBER (non-restraint)  =    -84006.0781
 EKCMT  =      5704.6315  VIRIAL  =      5860.5171  VOLUME     =    215662.7826
                                                    Density    =         1.0386
 ------------------------------------------------------------------------------

      A V E R A G E S   O V E R     100 S T E P S

 NSTEP =    50000   TIME(PS) =    1400.000  TEMP(K) =   299.83  PRESS =     5.7
 Etot   =    -70170.5652  EKtot   =     13481.7153  EPtot      =    -83652.2805
 BOND   =       519.2216  ANGLE   =      1411.7384  DIHED      =       932.3282
 UB     =         0.0000  IMP     =         0.0000  CMAP       =       124.1890
 1-4 NB =       628.0311  1-4 EEL =      8662.2211  VDWAALS    =      9542.5677
 EELEC  =   -105604.6210  EHBOND  =         0.0000  RESTRAINT  =       132.0435
 EAMBER (non-restraint)  =    -83784.3239
 EKCMT  =      5729.3495  VIRIAL  =      5702.7054  VOLUME     =    216203.5560
                                                    Density    =         1.0360
 ------------------------------------------------------------------------------

      R M S  F L U C T U A T I O N S

 NSTEP =    50000   TIME(PS) =    1400.000  TEMP(K) =     1.95  PRESS =   152.9
 Etot   =       179.8273  EKtot   =        87.6885  EPtot      =       142.8042
 BOND   =        18.5438  ANGLE   =        27.7199  DIHED      =        13.4009
 UB     =         0.0000  IMP     =         0.0000  CMAP       =         3.3378
 1-4 NB =         9.2913  1-4 EEL =        26.7613  VDWAALS    =       134.3189
 EELEC  =       228.5522  EHBOND  =         0.0000  RESTRAINT  =         6.4470
 EAMBER (non-restraint)  =       136.3572
 EKCMT  =        58.8785  VIRIAL  =       709.5859  VOLUME     =       441.3990
                                                    Density    =         0.0021
 ------------------------------------------------------------------------------
