-------------------------------------------------------
          Amber 18 PMEMD                              2018
          -------------------------------------------------------

  [-O]verwriting output

File Assignments:

 Here is the input file:

Equilibration with solute restrictions
&cntrl
imin = 0,                           ! No Minimization
nmropt = 0,                         ! No NMR restraints read

! Nature and format of the input
ntx = 5,                            ! Coordinates and velocities will be read
irest = 1,                          ! Do not run a new simulation

! Nature and format of the output
ntxo = 1,                           ! rstrt file in ASCII format
ntpr = 500,                         ! inf in output every ntpr steps
ntwr = 500,                         ! rstrt file every ntwr steps
ntwx = 500,                         ! mdcrd file every ntwx steps
ntwv = 0,                           ! mdvel without velocities
ntwe = 0,                           ! Do not write energies and temperatures
idecomp = 0,                        ! No energy decomposition
iwrap = 1,                          ! Coordinates of the restart and mdcrd file

! Frozen or restrained atoms
ibelly = 0,                         ! No frozen atoms
ntr=1,                              ! Harmonic potential restraints
restraint_wt = 0.0025,                ! The weight for the positional restraint
restraintmask = ':1-170@N,CA,C,O',  ! restrained residues

! Molecular dynamics
nstlim = 50000,                     ! Number of MD-steps
dt = 0.002,                         ! Time step

! Temperature regulation
ntt = 3,                            ! Langevin thermostat
gamma_ln = 5,                       ! Gamma constant for Langevin
temp0 = 300.0,                      ! Reference T at which the system is to be
tempi = 300.0,                      ! Initial T
ig = -1,                            ! Seed for the RNG

! P and V regulation
ntp = 1,                            ! constant P
barostat = 1,                       ! Berendsen barostat
taup = 1,                           ! Pressure relaxation time
ntb = 2,                            ! Periodic box for constant P

! SHAKE variables
ntc = 2,                            ! Bonds involving H are constrained
ntf = 2,                            ! Bond interaction involving H are ommited.

cut = 11.0,                         ! Nonbonded cutoff
/
&end

Note: ig = -1. Setting random seed to   902547 based on wallclock time in
      microseconds.

--------------------------------------------------------------------------------
   1.  RESOURCE   USE:
--------------------------------------------------------------------------------

 getting new box info from bottom of inpcrd
 NATOM  =   28320 NTYPES =      18 NBONH =   20536 MBONA  =    7816
 NTHETH =    3106 MTHETA =    1920 NPHIH =    6248 MPHIA  =    6024
 NHPARM =       0 NPARM  =       0 NNB   =   59928 NRES   =    6560
 NBONA  =    7816 NTHETA =    1920 NPHIA =    6024 NUMBND =      72
 NUMANG =     163 NPTRA  =     189 NATYP =      37 NPHB   =       1
 IFBOX  =       2 NMXRS  =      24 IFCAP =       0 NEXTRA =    6390
 NCOPY  =       0

     BOX TYPE: TRUNCATED OCTAHEDRON

--------------------------------------------------------------------------------
   2.  CONTROL  DATA  FOR  THE  RUN
--------------------------------------------------------------------------------

default_name

General flags:
     imin    =       0, nmropt  =       0

Nature and format of input:
     ntx     =       5, irest   =       1, ntrx    =       1

Nature and format of output:
     ntxo    =       1, ntpr    =     500, ntrx    =       1, ntwr    =     500
     iwrap   =       1, ntwx    =     500, ntwv    =       0, ntwe    =       0
     ioutfm  =       1, ntwprt  =       0, idecomp =       0, rbornstat=      0

Potential function:
     ntf     =       2, ntb     =       2, igb     =       0, nsnb    =      25
     ipol    =       0, gbsa    =       0, iesp    =       0
     dielc   =   1.00000, cut     =  11.00000, intdiel =   1.00000

Frozen or restrained atoms:
     ibelly  =       0, ntr     =       1
     restraint_wt =   0.00250

Molecular dynamics:
     nstlim  =     50000, nscm    =         0, nrespa  =         1
     t       =   0.00000, dt      =   0.00200, vlimit  =  -1.00000

Langevin dynamics temperature regulation:
     ig      =  902547
     temp0   = 300.00000, tempi   = 300.00000, gamma_ln=   5.00000

Pressure regulation:
     ntp     =       1
     pres0   =   1.00000, comp    =  44.60000, taup    =   1.00000

SHAKE:
     ntc     =       2, jfastw  =       0
     tol     =   0.00001

Extra-points options:
     frameon =       1, chngmask=       1

Ewald parameters:
     verbose =       0, ew_type =       0, nbflag  =       1, use_pme =       1
     vdwmeth =       1, eedmeth =       1, netfrc  =       1
     Box X =   65.373   Box Y =   65.373   Box Z =   65.373
     Alpha =  109.471   Beta  =  109.471   Gamma =  109.471
     NFFT1 =   64       NFFT2 =   64       NFFT3 =   64
     Cutoff=   11.000   Tol   =0.100E-04
     Ewald Coefficient =  0.24861
     Interpolation order =    4

    LOADING THE CONSTRAINED ATOMS AS GROUPS

   5.  REFERENCE ATOM COORDINATES

  default_name
     Mask :1-170@N,CA,C,O; matches   680 atoms

--------------------------------------------------------------------------------
   3.  ATOMIC COORDINATES AND VELOCITIES
--------------------------------------------------------------------------------

default_name
 begin time read from input coords =  7100.000 ps

 Number of triangulated 3-point waters found:     6390

     Sum of charges from parm topology file =   0.00003493
     Forcing neutrality...

--------------------------------------------------------------------------------
   4.  RESULTS
 NSTEP =      500   TIME(PS) =    7101.000  TEMP(K) =   300.79  PRESS =   350.9
 Etot   =    -70339.6403  EKtot   =     13524.8721  EPtot      =    -83864.5124
 BOND   =       478.3440  ANGLE   =      1448.3828  DIHED      =       934.4594
 UB     =         0.0000  IMP     =         0.0000  CMAP       =       139.4175
 1-4 NB =       621.1520  1-4 EEL =      8731.1151  VDWAALS    =      9643.8592
 EELEC  =   -105861.5330  EHBOND  =         0.0000  RESTRAINT  =         0.2905
 EAMBER (non-restraint)  =    -83864.8029
 EKCMT  =      5703.3717  VIRIAL  =      4075.9468  VOLUME     =    214814.5964
                                                    Density    =         1.0427
 ------------------------------------------------------------------------------

      A V E R A G E S   O V E R     100 S T E P S

 NSTEP =    50000   TIME(PS) =    7200.000  TEMP(K) =   300.03  PRESS =    -2.6
 Etot   =    -70330.0790  EKtot   =     13490.5604  EPtot      =    -83820.6394
 BOND   =       524.3166  ANGLE   =      1415.9636  DIHED      =       934.1021
 UB     =         0.0000  IMP     =         0.0000  CMAP       =       133.9830
 1-4 NB =       622.9748  1-4 EEL =      8674.3246  VDWAALS    =      9522.6868
 EELEC  =   -105650.9614  EHBOND  =         0.0000  RESTRAINT  =         1.9705
 EAMBER (non-restraint)  =    -83822.6099
 EKCMT  =      5733.2461  VIRIAL  =      5745.1592  VOLUME     =    215468.1819
                                                    Density    =         1.0396
 ------------------------------------------------------------------------------

      R M S  F L U C T U A T I O N S

 NSTEP =    50000   TIME(PS) =    7200.000  TEMP(K) =     1.86  PRESS =   158.2
 Etot   =       158.0658  EKtot   =        83.4430  EPtot      =       137.9722
 BOND   =        20.5695  ANGLE   =        26.6169  DIHED      =        14.1520
 UB     =         0.0000  IMP     =         0.0000  CMAP       =         5.3429
 1-4 NB =         9.8087  1-4 EEL =        26.3704  VDWAALS    =       132.7941
 EELEC  =       225.0709  EHBOND  =         0.0000  RESTRAINT  =         0.7917
 EAMBER (non-restraint)  =       137.1805
 EKCMT  =        56.0851  VIRIAL  =       737.1189  VOLUME     =       420.6886
                                                    Density    =         0.0020
 ------------------------------------------------------------------------------
