-------------------------------------------------------
          Amber 18 PMEMD                              2018
          -------------------------------------------------------

  [-O]verwriting output

File Assignments:

 Here is the input file:

Equilibration with solute restrictions
&cntrl
imin = 0,                           ! No Minimization
nmropt = 0,                         ! No NMR restraints read

! Nature and format of the input
ntx = 5,                            ! Coordinates and velocities will be read
irest = 1,                          ! Do not run a new simulation

! Nature and format of the output
ntxo = 1,                           ! rstrt file in ASCII format
ntpr = 500,                         ! inf in output every ntpr steps
ntwr = 500,                         ! rstrt file every ntwr steps
ntwx = 500,                         ! mdcrd file every ntwx steps
ntwv = 0,                           ! mdvel without velocities
ntwe = 0,                           ! Do not write energies and temperatures
idecomp = 0,                        ! No energy decomposition
iwrap = 1,                          ! Coordinates of the restart and mdcrd file

! Frozen or restrained atoms
ibelly = 0,                         ! No frozen atoms
ntr=1,                              ! Harmonic potential restraints
restraint_wt = 0.0035,                ! The weight for the positional restraint
restraintmask = ':1-224@N,CA,C,O',  ! restrained residues

! Molecular dynamics
nstlim = 50000,                     ! Number of MD-steps
dt = 0.002,                         ! Time step

! Temperature regulation
ntt = 3,                            ! Langevin thermostat
gamma_ln = 5,                       ! Gamma constant for Langevin
temp0 = 300.0,                      ! Reference T at which the system is to be
tempi = 300.0,                      ! Initial T
ig = -1,                            ! Seed for the RNG

! P and V regulation
ntp = 1,                            ! constant P
barostat = 1,                       ! Berendsen barostat
taup = 1,                           ! Pressure relaxation time
ntb = 2,                            ! Periodic box for constant P

! SHAKE variables
ntc = 2,                            ! Bonds involving H are constrained
ntf = 2,                            ! Bond interaction involving H are ommited.

cut = 11.0,                         ! Nonbonded cutoff
/
&end

Note: ig = -1. Setting random seed to   931072 based on wallclock time in
      microseconds.

--------------------------------------------------------------------------------
   1.  RESOURCE   USE:
--------------------------------------------------------------------------------

 getting new box info from bottom of inpcrd
 NATOM  =   35094 NTYPES =      19 NBONH =   25406 MBONA  =    9706
 NTHETH =    4174 MTHETA =    2496 NPHIH =    8340 MPHIA  =    8026
 NHPARM =       0 NPARM  =       0 NNB   =   75254 NRES   =    8094
 NBONA  =    9706 NTHETA =    2496 NPHIA =    8026 NUMBND =      71
 NUMANG =     162 NPTRA  =     183 NATYP =      37 NPHB   =       1
 IFBOX  =       2 NMXRS  =      24 IFCAP =       0 NEXTRA =    7860
 NCOPY  =       0

     BOX TYPE: TRUNCATED OCTAHEDRON

--------------------------------------------------------------------------------
   2.  CONTROL  DATA  FOR  THE  RUN
--------------------------------------------------------------------------------

default_name

General flags:
     imin    =       0, nmropt  =       0

Nature and format of input:
     ntx     =       5, irest   =       1, ntrx    =       1

Nature and format of output:
     ntxo    =       1, ntpr    =     500, ntrx    =       1, ntwr    =     500
     iwrap   =       1, ntwx    =     500, ntwv    =       0, ntwe    =       0
     ioutfm  =       1, ntwprt  =       0, idecomp =       0, rbornstat=      0

Potential function:
     ntf     =       2, ntb     =       2, igb     =       0, nsnb    =      25
     ipol    =       0, gbsa    =       0, iesp    =       0
     dielc   =   1.00000, cut     =  11.00000, intdiel =   1.00000

Frozen or restrained atoms:
     ibelly  =       0, ntr     =       1
     restraint_wt =   0.00350

Molecular dynamics:
     nstlim  =     50000, nscm    =         0, nrespa  =         1
     t       =   0.00000, dt      =   0.00200, vlimit  =  -1.00000

Langevin dynamics temperature regulation:
     ig      =  931072
     temp0   = 300.00000, tempi   = 300.00000, gamma_ln=   5.00000

Pressure regulation:
     ntp     =       1
     pres0   =   1.00000, comp    =  44.60000, taup    =   1.00000

SHAKE:
     ntc     =       2, jfastw  =       0
     tol     =   0.00001

Extra-points options:
     frameon =       1, chngmask=       1

Ewald parameters:
     verbose =       0, ew_type =       0, nbflag  =       1, use_pme =       1
     vdwmeth =       1, eedmeth =       1, netfrc  =       1
     Box X =   70.248   Box Y =   70.248   Box Z =   70.248
     Alpha =  109.471   Beta  =  109.471   Gamma =  109.471
     NFFT1 =   72       NFFT2 =   72       NFFT3 =   72
     Cutoff=   11.000   Tol   =0.100E-04
     Ewald Coefficient =  0.24861
     Interpolation order =    4

    LOADING THE CONSTRAINED ATOMS AS GROUPS

   5.  REFERENCE ATOM COORDINATES

  default_name
     Mask :1-224@N,CA,C,O; matches   896 atoms

--------------------------------------------------------------------------------
   3.  ATOMIC COORDINATES AND VELOCITIES
--------------------------------------------------------------------------------

default_name
 begin time read from input coords =  6900.000 ps

 Number of triangulated 3-point waters found:     7860

     Sum of charges from parm topology file =   0.00004304
     Forcing neutrality...

--------------------------------------------------------------------------------
   4.  RESULTS
 NSTEP =      500   TIME(PS) =    6901.000  TEMP(K) =   298.88  PRESS =  -121.2
 Etot   =    -88814.4767  EKtot   =     16717.7930  EPtot      =   -105532.2697
 BOND   =       695.3669  ANGLE   =      1764.0453  DIHED      =      1345.6330
 UB     =         0.0000  IMP     =         0.0000  CMAP       =       182.5356
 1-4 NB =       822.7688  1-4 EEL =     11390.1473  VDWAALS    =     11915.7555
 EELEC  =   -133649.1190  EHBOND  =         0.0000  RESTRAINT  =         0.5970
 EAMBER (non-restraint)  =   -105532.8666
 EKCMT  =      7033.0691  VIRIAL  =      7731.5535  VOLUME     =    267015.5877
                                                    Density    =         1.0424
 ------------------------------------------------------------------------------

      A V E R A G E S   O V E R     100 S T E P S

 NSTEP =    50000   TIME(PS) =    7000.000  TEMP(K) =   300.01  PRESS =   -11.5
 Etot   =    -88553.8699  EKtot   =     16780.9549  EPtot      =   -105334.8248
 BOND   =       676.6807  ANGLE   =      1834.1560  DIHED      =      1335.9203
 UB     =         0.0000  IMP     =         0.0000  CMAP       =       185.8201
 1-4 NB =       822.1091  1-4 EEL =     11377.6518  VDWAALS    =     11728.5612
 EELEC  =   -133298.1791  EHBOND  =         0.0000  RESTRAINT  =         2.4550
 EAMBER (non-restraint)  =   -105337.2798
 EKCMT  =      7057.1515  VIRIAL  =      7123.9885  VOLUME     =    267324.1546
                                                    Density    =         1.0412
 ------------------------------------------------------------------------------

      R M S  F L U C T U A T I O N S

 NSTEP =    50000   TIME(PS) =    7000.000  TEMP(K) =     1.92  PRESS =   161.0
 Etot   =       174.0082  EKtot   =       107.4141  EPtot      =       139.8518
 BOND   =        22.0239  ANGLE   =        35.5342  DIHED      =        14.0991
 UB     =         0.0000  IMP     =         0.0000  CMAP       =         6.2642
 1-4 NB =        13.3282  1-4 EEL =        28.5946  VDWAALS    =       158.7195
 EELEC  =       251.8447  EHBOND  =         0.0000  RESTRAINT  =         0.9231
 EAMBER (non-restraint)  =       138.9287
 EKCMT  =        68.5533  VIRIAL  =       927.6755  VOLUME     =       472.7935
                                                    Density    =         0.0018
 ------------------------------------------------------------------------------
