-------------------------------------------------------
          Amber 18 PMEMD                              2018
          -------------------------------------------------------

  [-O]verwriting output

File Assignments:

 Here is the input file:

Equilibration with solute restrictions
&cntrl
imin = 0,                           ! No Minimization
nmropt = 0,                         ! No NMR restraints read

! Nature and format of the input
ntx = 5,                            ! Coordinates and velocities will be read
irest = 1,                          ! Do not run a new simulation

! Nature and format of the output
ntxo = 1,                           ! rstrt file in ASCII format
ntpr = 500,                         ! inf in output every ntpr steps
ntwr = 500,                         ! rstrt file every ntwr steps
ntwx = 500,                         ! mdcrd file every ntwx steps
ntwv = 0,                           ! mdvel without velocities
ntwe = 0,                           ! Do not write energies and temperatures
idecomp = 0,                        ! No energy decomposition
iwrap = 1,                          ! Coordinates of the restart and mdcrd file

! Frozen or restrained atoms
ibelly = 0,                         ! No frozen atoms
ntr=1,                              ! Harmonic potential restraints
restraint_wt = 0.11,                ! The weight for the positional restraints
restraintmask = ':1-188@N,CA,C,O',  ! restrained residues

! Molecular dynamics
nstlim = 50000,                     ! Number of MD-steps
dt = 0.002,                         ! Time step

! Temperature regulation
ntt = 3,                            ! Langevin thermostat
gamma_ln = 5,                       ! Gamma constant for Langevin
temp0 = 300.0,                      ! Reference T at which the system is to be
tempi = 300.0,                      ! Initial T
ig = -1,                            ! Seed for the RNG

! P and V regulation
ntp = 1,                            ! constant P
barostat = 1,                       ! Berendsen barostat
taup = 1,                           ! Pressure relaxation time
ntb = 2,                            ! Periodic box for constant P

! SHAKE variables
ntc = 2,                            ! Bonds involving H are constrained
ntf = 2,                            ! Bond interaction involving H are ommited.

cut = 11.0,                         ! Nonbonded cutoff
/
&end

Note: ig = -1. Setting random seed to   197421 based on wallclock time in
      microseconds.

--------------------------------------------------------------------------------
   1.  RESOURCE   USE:
--------------------------------------------------------------------------------

 getting new box info from bottom of inpcrd
 NATOM  =   29212 NTYPES =      18 NBONH =   21140 MBONA  =    8102
 NTHETH =    3410 MTHETA =    2086 NPHIH =    6826 MPHIA  =    6594
 NHPARM =       0 NPARM  =       0 NNB   =   62450 NRES   =    6736
 NBONA  =    8102 NTHETA =    2086 NPHIA =    6594 NUMBND =      74
 NUMANG =     174 NPTRA  =     192 NATYP =      37 NPHB   =       1
 IFBOX  =       2 NMXRS  =      24 IFCAP =       0 NEXTRA =    6548
 NCOPY  =       0

     BOX TYPE: TRUNCATED OCTAHEDRON

--------------------------------------------------------------------------------
   2.  CONTROL  DATA  FOR  THE  RUN
--------------------------------------------------------------------------------

default_name

General flags:
     imin    =       0, nmropt  =       0

Nature and format of input:
     ntx     =       5, irest   =       1, ntrx    =       1

Nature and format of output:
     ntxo    =       1, ntpr    =     500, ntrx    =       1, ntwr    =     500
     iwrap   =       1, ntwx    =     500, ntwv    =       0, ntwe    =       0
     ioutfm  =       1, ntwprt  =       0, idecomp =       0, rbornstat=      0

Potential function:
     ntf     =       2, ntb     =       2, igb     =       0, nsnb    =      25
     ipol    =       0, gbsa    =       0, iesp    =       0
     dielc   =   1.00000, cut     =  11.00000, intdiel =   1.00000

Frozen or restrained atoms:
     ibelly  =       0, ntr     =       1
     restraint_wt =   0.11000

Molecular dynamics:
     nstlim  =     50000, nscm    =         0, nrespa  =         1
     t       =   0.00000, dt      =   0.00200, vlimit  =  -1.00000

Langevin dynamics temperature regulation:
     ig      =  197421
     temp0   = 300.00000, tempi   = 300.00000, gamma_ln=   5.00000

Pressure regulation:
     ntp     =       1
     pres0   =   1.00000, comp    =  44.60000, taup    =   1.00000

SHAKE:
     ntc     =       2, jfastw  =       0
     tol     =   0.00001

Extra-points options:
     frameon =       1, chngmask=       1

Ewald parameters:
     verbose =       0, ew_type =       0, nbflag  =       1, use_pme =       1
     vdwmeth =       1, eedmeth =       1, netfrc  =       1
     Box X =   66.080   Box Y =   66.080   Box Z =   66.080
     Alpha =  109.471   Beta  =  109.471   Gamma =  109.471
     NFFT1 =   64       NFFT2 =   64       NFFT3 =   64
     Cutoff=   11.000   Tol   =0.100E-04
     Ewald Coefficient =  0.24861
     Interpolation order =    4

    LOADING THE CONSTRAINED ATOMS AS GROUPS

   5.  REFERENCE ATOM COORDINATES

  default_name
     Mask :1-188@N,CA,C,O; matches   752 atoms

--------------------------------------------------------------------------------
   3.  ATOMIC COORDINATES AND VELOCITIES
--------------------------------------------------------------------------------

default_name
 begin time read from input coords =  4200.000 ps

 Number of triangulated 3-point waters found:     6548

     Sum of charges from parm topology file =   0.00003578
     Forcing neutrality...

--------------------------------------------------------------------------------
   4.  RESULTS
 NSTEP =      500   TIME(PS) =    4201.000  TEMP(K) =   299.23  PRESS =  -148.5
 Etot   =    -72433.3192  EKtot   =     13929.6699  EPtot      =    -86362.9891
 BOND   =       567.2043  ANGLE   =      1591.4901  DIHED      =      1003.2852
 UB     =         0.0000  IMP     =         0.0000  CMAP       =       133.2907
 1-4 NB =       675.1799  1-4 EEL =     10090.4855  VDWAALS    =      9546.8371
 EELEC  =   -109981.6787  EHBOND  =         0.0000  RESTRAINT  =        10.9169
 EAMBER (non-restraint)  =    -86373.9060
 EKCMT  =      5896.9837  VIRIAL  =      6609.1232  VOLUME     =    222078.0722
                                                    Density    =         1.0445
 ------------------------------------------------------------------------------

      A V E R A G E S   O V E R     100 S T E P S

 NSTEP =    50000   TIME(PS) =    4300.000  TEMP(K) =   300.02  PRESS =     0.3
 Etot   =    -72267.5074  EKtot   =     13966.7052  EPtot      =    -86234.2126
 BOND   =       566.4353  ANGLE   =      1586.9871  DIHED      =      1025.5595
 UB     =         0.0000  IMP     =         0.0000  CMAP       =       137.9309
 1-4 NB =       664.9564  1-4 EEL =     10079.2709  VDWAALS    =      9634.1393
 EELEC  =   -109947.0685  EHBOND  =         0.0000  RESTRAINT  =        17.5764
 EAMBER (non-restraint)  =    -86251.7891
 EKCMT  =      5883.6129  VIRIAL  =      5882.0149  VOLUME     =    222391.6980
                                                    Density    =         1.0430
 ------------------------------------------------------------------------------

      R M S  F L U C T U A T I O N S

 NSTEP =    50000   TIME(PS) =    4300.000  TEMP(K) =     1.79  PRESS =   161.1
 Etot   =       158.1217  EKtot   =        83.2591  EPtot      =       131.3678
 BOND   =        20.6658  ANGLE   =        31.2947  DIHED      =        15.8372
 UB     =         0.0000  IMP     =         0.0000  CMAP       =         5.2671
 1-4 NB =         8.4029  1-4 EEL =        25.4940  VDWAALS    =       127.0428
 EELEC  =       193.7462  EHBOND  =         0.0000  RESTRAINT  =         1.8718
 EAMBER (non-restraint)  =       129.4960
 EKCMT  =        50.5850  VIRIAL  =       777.4751  VOLUME     =       440.7995
                                                    Density    =         0.0021
 ------------------------------------------------------------------------------
