-------------------------------------------------------
          Amber 18 PMEMD                              2018
          -------------------------------------------------------

  [-O]verwriting output

File Assignments:

 Here is the input file:

Equilibration with solute restrictions
&cntrl
imin = 0,                           ! No Minimization
nmropt = 0,                         ! No NMR restraints read

! Nature and format of the input
ntx = 5,                            ! Coordinates but no velocities will be rea
irest = 1,                          ! Do not run a new simulation

! Nature and format of the output
ntxo = 1,                           ! rstrt file in ASCII format
ntpr = 500,                         ! inf in output every ntpr steps
ntwr = 500,                         ! rstrt file every ntwr steps
ntwx = 500,                         ! mdcrd file every ntwx steps
ntwv = 0,                           ! mdvel without velocities
ntwe = 0,                           ! Do not write energies and temperatures
idecomp = 0,                        ! No energy decomposition
iwrap = 1,                          ! Coordinates of the restart and mdcrd file

! Frozen or restrained atoms
ibelly = 0,                         ! No frozen atoms
ntr=1,                              ! Harmonic potential restraints
restraint_wt = 0.35,                ! The weight for the positional restraints
restraintmask = ':1-233@N,CA,C,O',  ! restrained residues

! Molecular dynamics
nstlim = 50000,                     ! Number of MD-steps
dt = 0.002,                         ! Time step

! Temperature regulation
ntt = 3,                            ! Langevin thermostat
gamma_ln = 5,                       ! Gamma constant for Langevin
temp0 = 300.0,                      ! Reference T at which the system is to be
tempi = 300.0,                      ! Initial T
ig = -1,                            ! Seed for the RNG

! P and V regulation
ntp = 1,                            ! constant P
barostat = 1,                       ! Berendsen barostat
taup = 1,                           ! Pressure relaxation time
ntb = 2,                            ! Periodic box for constant P

! SHAKE variables
ntc = 2,                            ! Bonds involving H are constrained
ntf = 2,                            ! Bond interaction involving H are ommited.

cut = 10.0,                         ! Nonbonded cutoff
/
&end

Note: ig = -1. Setting random seed to   993502 based on wallclock time in
      microseconds.

--------------------------------------------------------------------------------
   1.  RESOURCE   USE:
--------------------------------------------------------------------------------

 getting new box info from bottom of inpcrd
 NATOM  =   27028 NTYPES =      19 NBONH =   19356 MBONA  =    7704
 NTHETH =    4024 MTHETA =    2516 NPHIH =    8244 MPHIA  =    8109
 NHPARM =       0 NPARM  =       0 NNB   =   60790 NRES   =    6092
 NBONA  =    7704 NTHETA =    2516 NPHIA =    8109 NUMBND =      78
 NUMANG =     185 NPTRA  =     201 NATYP =      39 NPHB   =       1
 IFBOX  =       2 NMXRS  =      24 IFCAP =       0 NEXTRA =    5858
 NCOPY  =       0

     BOX TYPE: TRUNCATED OCTAHEDRON

--------------------------------------------------------------------------------
   2.  CONTROL  DATA  FOR  THE  RUN
--------------------------------------------------------------------------------

default_name

General flags:
     imin    =       0, nmropt  =       0

Nature and format of input:
     ntx     =       5, irest   =       1, ntrx    =       1

Nature and format of output:
     ntxo    =       1, ntpr    =     500, ntrx    =       1, ntwr    =     500
     iwrap   =       1, ntwx    =     500, ntwv    =       0, ntwe    =       0
     ioutfm  =       1, ntwprt  =       0, idecomp =       0, rbornstat=      0

Potential function:
     ntf     =       2, ntb     =       2, igb     =       0, nsnb    =      25
     ipol    =       0, gbsa    =       0, iesp    =       0
     dielc   =   1.00000, cut     =  10.00000, intdiel =   1.00000

Frozen or restrained atoms:
     ibelly  =       0, ntr     =       1
     restraint_wt =   0.35000

Molecular dynamics:
     nstlim  =     50000, nscm    =         0, nrespa  =         1
     t       =   0.00000, dt      =   0.00200, vlimit  =  -1.00000

Langevin dynamics temperature regulation:
     ig      =  993502
     temp0   = 300.00000, tempi   = 300.00000, gamma_ln=   5.00000

Pressure regulation:
     ntp     =       1
     pres0   =   1.00000, comp    =  44.60000, taup    =   1.00000

SHAKE:
     ntc     =       2, jfastw  =       0
     tol     =   0.00001

Extra-points options:
     frameon =       1, chngmask=       1

Ewald parameters:
     verbose =       0, ew_type =       0, nbflag  =       1, use_pme =       1
     vdwmeth =       1, eedmeth =       1, netfrc  =       1
     Box X =   64.588   Box Y =   64.588   Box Z =   64.588
     Alpha =  109.471   Beta  =  109.471   Gamma =  109.471
     NFFT1 =   64       NFFT2 =   64       NFFT3 =   64
     Cutoff=   10.000   Tol   =0.100E-04
     Ewald Coefficient =  0.27511
     Interpolation order =    4

    LOADING THE CONSTRAINED ATOMS AS GROUPS

   5.  REFERENCE ATOM COORDINATES

  default_name
     Mask :1-233@N,CA,C,O; matches   928 atoms

--------------------------------------------------------------------------------
   3.  ATOMIC COORDINATES AND VELOCITIES
--------------------------------------------------------------------------------

default_name
 begin time read from input coords =  3300.000 ps

 Number of triangulated 3-point waters found:     5858

     Sum of charges from parm topology file =   0.00003202
     Forcing neutrality...

--------------------------------------------------------------------------------
   4.  RESULTS
 NSTEP =      500   TIME(PS) =    3301.000  TEMP(K) =   299.85  PRESS =  -104.2
 Etot   =    -66247.2442  EKtot   =     13154.9189  EPtot      =    -79402.1631
 BOND   =       671.0139  ANGLE   =      1823.0102  DIHED      =      1371.5174
 UB     =         0.0000  IMP     =         0.0000  CMAP       =       179.4728
 1-4 NB =       817.5304  1-4 EEL =     10683.7108  VDWAALS    =      8025.1085
 EELEC  =   -103013.3064  EHBOND  =         0.0000  RESTRAINT  =        39.7793
 EAMBER (non-restraint)  =    -79441.9424
 EKCMT  =      5288.5966  VIRIAL  =      5755.5397  VOLUME     =    207478.8751
                                                    Density    =         1.0520
 ------------------------------------------------------------------------------

      A V E R A G E S   O V E R     100 S T E P S

 NSTEP =    50000   TIME(PS) =    3400.000  TEMP(K) =   300.28  PRESS =     4.8
 Etot   =    -66089.7036  EKtot   =     13173.4813  EPtot      =    -79263.1850
 BOND   =       679.6110  ANGLE   =      1801.9570  DIHED      =      1374.7366
 UB     =         0.0000  IMP     =         0.0000  CMAP       =       177.0727
 1-4 NB =       811.1256  1-4 EEL =     10714.2810  VDWAALS    =      8045.2524
 EELEC  =   -102914.6062  EHBOND  =         0.0000  RESTRAINT  =        47.3849
 EAMBER (non-restraint)  =    -79310.5699
 EKCMT  =      5264.7318  VIRIAL  =      5243.1325  VOLUME     =    207183.5950
                                                    Density    =         1.0535
 ------------------------------------------------------------------------------

      R M S  F L U C T U A T I O N S

 NSTEP =    50000   TIME(PS) =    3400.000  TEMP(K) =     1.99  PRESS =   193.4
 Etot   =       161.2621  EKtot   =        87.2657  EPtot      =       127.9431
 BOND   =        23.1090  ANGLE   =        32.1446  DIHED      =        16.5029
 UB     =         0.0000  IMP     =         0.0000  CMAP       =         5.8453
 1-4 NB =        11.5933  1-4 EEL =        29.8130  VDWAALS    =       119.3997
 EELEC  =       201.8609  EHBOND  =         0.0000  RESTRAINT  =         3.5112
 EAMBER (non-restraint)  =       124.4320
 EKCMT  =        54.6397  VIRIAL  =       862.0393  VOLUME     =       417.3253
                                                    Density    =         0.0021
 ------------------------------------------------------------------------------
