-------------------------------------------------------
          Amber 18 PMEMD                              2018
          -------------------------------------------------------

  [-O]verwriting output

File Assignments:

 Here is the input file:

Equilibration with solute restrictions
&cntrl
imin = 0,                           ! No Minimization
nmropt = 0,                         ! No NMR restraints read

! Nature and format of the input
ntx = 5,                            ! Coordinates but no velocities will be rea
irest = 1,                          ! Do not run a new simulation

! Nature and format of the output
ntxo = 1,                           ! rstrt file in ASCII format
ntpr = 500,                         ! inf in output every ntpr steps
ntwr = 500,                         ! rstrt file every ntwr steps
ntwx = 500,                         ! mdcrd file every ntwx steps
ntwv = 0,                           ! mdvel without velocities
ntwe = 0,                           ! Do not write energies and temperatures
idecomp = 0,                        ! No energy decomposition
iwrap = 1,                          ! Coordinates of the restart and mdcrd file

! Frozen or restrained atoms
ibelly = 0,                         ! No frozen atoms
ntr=1,                              ! Harmonic potential restraints
restraint_wt = 0.08,                ! The weight for the positional restraints
restraintmask = ':1-233@N,CA,C,O',  ! restrained residues

! Molecular dynamics
nstlim = 50000,                     ! Number of MD-steps
dt = 0.002,                         ! Time step

! Temperature regulation
ntt = 3,                            ! Langevin thermostat
gamma_ln = 5,                       ! Gamma constant for Langevin
temp0 = 300.0,                      ! Reference T at which the system is to be
tempi = 300.0,                      ! Initial T
ig = -1,                            ! Seed for the RNG

! P and V regulation
ntp = 1,                            ! constant P
barostat = 1,                       ! Berendsen barostat
taup = 1,                           ! Pressure relaxation time
ntb = 2,                            ! Periodic box for constant P

! SHAKE variables
ntc = 2,                            ! Bonds involving H are constrained
ntf = 2,                            ! Bond interaction involving H are ommited.

cut = 10.0,                         ! Nonbonded cutoff
/
&end

Note: ig = -1. Setting random seed to   161641 based on wallclock time in
      microseconds.

--------------------------------------------------------------------------------
   1.  RESOURCE   USE:
--------------------------------------------------------------------------------

 getting new box info from bottom of inpcrd
 NATOM  =   27028 NTYPES =      19 NBONH =   19356 MBONA  =    7704
 NTHETH =    4024 MTHETA =    2516 NPHIH =    8244 MPHIA  =    8109
 NHPARM =       0 NPARM  =       0 NNB   =   60790 NRES   =    6092
 NBONA  =    7704 NTHETA =    2516 NPHIA =    8109 NUMBND =      78
 NUMANG =     185 NPTRA  =     201 NATYP =      39 NPHB   =       1
 IFBOX  =       2 NMXRS  =      24 IFCAP =       0 NEXTRA =    5858
 NCOPY  =       0

     BOX TYPE: TRUNCATED OCTAHEDRON

--------------------------------------------------------------------------------
   2.  CONTROL  DATA  FOR  THE  RUN
--------------------------------------------------------------------------------

default_name

General flags:
     imin    =       0, nmropt  =       0

Nature and format of input:
     ntx     =       5, irest   =       1, ntrx    =       1

Nature and format of output:
     ntxo    =       1, ntpr    =     500, ntrx    =       1, ntwr    =     500
     iwrap   =       1, ntwx    =     500, ntwv    =       0, ntwe    =       0
     ioutfm  =       1, ntwprt  =       0, idecomp =       0, rbornstat=      0

Potential function:
     ntf     =       2, ntb     =       2, igb     =       0, nsnb    =      25
     ipol    =       0, gbsa    =       0, iesp    =       0
     dielc   =   1.00000, cut     =  10.00000, intdiel =   1.00000

Frozen or restrained atoms:
     ibelly  =       0, ntr     =       1
     restraint_wt =   0.08000

Molecular dynamics:
     nstlim  =     50000, nscm    =         0, nrespa  =         1
     t       =   0.00000, dt      =   0.00200, vlimit  =  -1.00000

Langevin dynamics temperature regulation:
     ig      =  161641
     temp0   = 300.00000, tempi   = 300.00000, gamma_ln=   5.00000

Pressure regulation:
     ntp     =       1
     pres0   =   1.00000, comp    =  44.60000, taup    =   1.00000

SHAKE:
     ntc     =       2, jfastw  =       0
     tol     =   0.00001

Extra-points options:
     frameon =       1, chngmask=       1

Ewald parameters:
     verbose =       0, ew_type =       0, nbflag  =       1, use_pme =       1
     vdwmeth =       1, eedmeth =       1, netfrc  =       1
     Box X =   64.521   Box Y =   64.521   Box Z =   64.521
     Alpha =  109.471   Beta  =  109.471   Gamma =  109.471
     NFFT1 =   64       NFFT2 =   64       NFFT3 =   64
     Cutoff=   10.000   Tol   =0.100E-04
     Ewald Coefficient =  0.27511
     Interpolation order =    4

    LOADING THE CONSTRAINED ATOMS AS GROUPS

   5.  REFERENCE ATOM COORDINATES

  default_name
     Mask :1-233@N,CA,C,O; matches   928 atoms

--------------------------------------------------------------------------------
   3.  ATOMIC COORDINATES AND VELOCITIES
--------------------------------------------------------------------------------

default_name
 begin time read from input coords =  4600.000 ps

 Number of triangulated 3-point waters found:     5858

     Sum of charges from parm topology file =   0.00003202
     Forcing neutrality...

--------------------------------------------------------------------------------
   4.  RESULTS
 NSTEP =      500   TIME(PS) =    4601.000  TEMP(K) =   300.43  PRESS =   181.3
 Etot   =    -66254.9764  EKtot   =     13180.2412  EPtot      =    -79435.2176
 BOND   =       677.5311  ANGLE   =      1846.3467  DIHED      =      1375.7116
 UB     =         0.0000  IMP     =         0.0000  CMAP       =       191.5539
 1-4 NB =       803.8702  1-4 EEL =     10712.3698  VDWAALS    =      8051.0476
 EELEC  =   -103106.5694  EHBOND  =         0.0000  RESTRAINT  =        12.9209
 EAMBER (non-restraint)  =    -79448.1384
 EKCMT  =      5280.2411  VIRIAL  =      4470.8615  VOLUME     =    206741.5866
                                                    Density    =         1.0558
 ------------------------------------------------------------------------------

      A V E R A G E S   O V E R     100 S T E P S

 NSTEP =    50000   TIME(PS) =    4700.000  TEMP(K) =   300.12  PRESS =    10.6
 Etot   =    -66144.7314  EKtot   =     13166.5001  EPtot      =    -79311.2316
 BOND   =       679.9519  ANGLE   =      1797.4601  DIHED      =      1380.9909
 UB     =         0.0000  IMP     =         0.0000  CMAP       =       186.7122
 1-4 NB =       812.2983  1-4 EEL =     10706.0602  VDWAALS    =      8022.7618
 EELEC  =   -102918.5914  EHBOND  =         0.0000  RESTRAINT  =        21.1244
 EAMBER (non-restraint)  =    -79332.3559
 EKCMT  =      5258.7591  VIRIAL  =      5211.3145  VOLUME     =    207107.2785
                                                    Density    =         1.0539
 ------------------------------------------------------------------------------

      R M S  F L U C T U A T I O N S

 NSTEP =    50000   TIME(PS) =    4700.000  TEMP(K) =     2.10  PRESS =   173.9
 Etot   =       156.4204  EKtot   =        92.0873  EPtot      =       123.3828
 BOND   =        22.8473  ANGLE   =        31.4433  DIHED      =        16.9553
 UB     =         0.0000  IMP     =         0.0000  CMAP       =         6.9814
 1-4 NB =        11.2017  1-4 EEL =        29.3620  VDWAALS    =       112.3196
 EELEC  =       177.0982  EHBOND  =         0.0000  RESTRAINT  =         2.8852
 EAMBER (non-restraint)  =       120.4976
 EKCMT  =        57.4437  VIRIAL  =       782.4490  VOLUME     =       434.0285
                                                    Density    =         0.0022
 ------------------------------------------------------------------------------
