-------------------------------------------------------
          Amber 18 PMEMD                              2018
          -------------------------------------------------------

  [-O]verwriting output

File Assignments:

 Here is the input file:

Equilibration with solute restrictions
&cntrl
imin = 0,                           ! No Minimization
nmropt = 0,                         ! No NMR restraints read

! Nature and format of the input
ntx = 5,                            ! Coordinates but no velocities will be rea
irest = 1,                          ! Do not run a new simulation

! Nature and format of the output
ntxo = 1,                           ! rstrt file in ASCII format
ntpr = 500,                         ! inf in output every ntpr steps
ntwr = 500,                         ! rstrt file every ntwr steps
ntwx = 500,                         ! mdcrd file every ntwx steps
ntwv = 0,                           ! mdvel without velocities
ntwe = 0,                           ! Do not write energies and temperatures
idecomp = 0,                        ! No energy decomposition
iwrap = 1,                          ! Coordinates of the restart and mdcrd file

! Frozen or restrained atoms
ibelly = 0,                         ! No frozen atoms
ntr=1,                              ! Harmonic potential restraints
restraint_wt = 0.006,                ! The weight for the positional restraints
restraintmask = ':1-233@N,CA,C,O',  ! restrained residues

! Molecular dynamics
nstlim = 50000,                     ! Number of MD-steps
dt = 0.002,                         ! Time step

! Temperature regulation
ntt = 3,                            ! Langevin thermostat
gamma_ln = 5,                       ! Gamma constant for Langevin
temp0 = 300.0,                      ! Reference T at which the system is to be
tempi = 300.0,                      ! Initial T
ig = -1,                            ! Seed for the RNG

! P and V regulation
ntp = 1,                            ! constant P
barostat = 1,                       ! Berendsen barostat
taup = 1,                           ! Pressure relaxation time
ntb = 2,                            ! Periodic box for constant P

! SHAKE variables
ntc = 2,                            ! Bonds involving H are constrained
ntf = 2,                            ! Bond interaction involving H are ommited.

cut = 10.0,                         ! Nonbonded cutoff
/
&end

Note: ig = -1. Setting random seed to   834085 based on wallclock time in
      microseconds.

--------------------------------------------------------------------------------
   1.  RESOURCE   USE:
--------------------------------------------------------------------------------

 getting new box info from bottom of inpcrd
 NATOM  =   27028 NTYPES =      19 NBONH =   19356 MBONA  =    7704
 NTHETH =    4024 MTHETA =    2516 NPHIH =    8244 MPHIA  =    8109
 NHPARM =       0 NPARM  =       0 NNB   =   60790 NRES   =    6092
 NBONA  =    7704 NTHETA =    2516 NPHIA =    8109 NUMBND =      78
 NUMANG =     185 NPTRA  =     201 NATYP =      39 NPHB   =       1
 IFBOX  =       2 NMXRS  =      24 IFCAP =       0 NEXTRA =    5858
 NCOPY  =       0

     BOX TYPE: TRUNCATED OCTAHEDRON

--------------------------------------------------------------------------------
   2.  CONTROL  DATA  FOR  THE  RUN
--------------------------------------------------------------------------------

default_name

General flags:
     imin    =       0, nmropt  =       0

Nature and format of input:
     ntx     =       5, irest   =       1, ntrx    =       1

Nature and format of output:
     ntxo    =       1, ntpr    =     500, ntrx    =       1, ntwr    =     500
     iwrap   =       1, ntwx    =     500, ntwv    =       0, ntwe    =       0
     ioutfm  =       1, ntwprt  =       0, idecomp =       0, rbornstat=      0

Potential function:
     ntf     =       2, ntb     =       2, igb     =       0, nsnb    =      25
     ipol    =       0, gbsa    =       0, iesp    =       0
     dielc   =   1.00000, cut     =  10.00000, intdiel =   1.00000

Frozen or restrained atoms:
     ibelly  =       0, ntr     =       1
     restraint_wt =   0.00600

Molecular dynamics:
     nstlim  =     50000, nscm    =         0, nrespa  =         1
     t       =   0.00000, dt      =   0.00200, vlimit  =  -1.00000

Langevin dynamics temperature regulation:
     ig      =  834085
     temp0   = 300.00000, tempi   = 300.00000, gamma_ln=   5.00000

Pressure regulation:
     ntp     =       1
     pres0   =   1.00000, comp    =  44.60000, taup    =   1.00000

SHAKE:
     ntc     =       2, jfastw  =       0
     tol     =   0.00001

Extra-points options:
     frameon =       1, chngmask=       1

Ewald parameters:
     verbose =       0, ew_type =       0, nbflag  =       1, use_pme =       1
     vdwmeth =       1, eedmeth =       1, netfrc  =       1
     Box X =   64.565   Box Y =   64.565   Box Z =   64.565
     Alpha =  109.471   Beta  =  109.471   Gamma =  109.471
     NFFT1 =   64       NFFT2 =   64       NFFT3 =   64
     Cutoff=   10.000   Tol   =0.100E-04
     Ewald Coefficient =  0.27511
     Interpolation order =    4

    LOADING THE CONSTRAINED ATOMS AS GROUPS

   5.  REFERENCE ATOM COORDINATES

  default_name
     Mask :1-233@N,CA,C,O; matches   928 atoms

--------------------------------------------------------------------------------
   3.  ATOMIC COORDINATES AND VELOCITIES
--------------------------------------------------------------------------------

default_name
 begin time read from input coords =  6500.000 ps

 Number of triangulated 3-point waters found:     5858

     Sum of charges from parm topology file =   0.00003202
     Forcing neutrality...

--------------------------------------------------------------------------------
   4.  RESULTS
 NSTEP =      500   TIME(PS) =    6501.000  TEMP(K) =   300.14  PRESS =  -190.4
 Etot   =    -66393.2380  EKtot   =     13167.3477  EPtot      =    -79560.5856
 BOND   =       669.4019  ANGLE   =      1775.6777  DIHED      =      1344.9420
 UB     =         0.0000  IMP     =         0.0000  CMAP       =       169.9343
 1-4 NB =       803.9139  1-4 EEL =     10715.4624  VDWAALS    =      7967.8680
 EELEC  =   -103008.7733  EHBOND  =         0.0000  RESTRAINT  =         0.9875
 EAMBER (non-restraint)  =    -79561.5732
 EKCMT  =      5264.2514  VIRIAL  =      6114.8177  VOLUME     =    206919.4174
                                                    Density    =         1.0549
 ------------------------------------------------------------------------------

      A V E R A G E S   O V E R     100 S T E P S

 NSTEP =    50000   TIME(PS) =    6600.000  TEMP(K) =   300.06  PRESS =    22.1
 Etot   =    -66168.5168  EKtot   =     13163.9010  EPtot      =    -79332.4178
 BOND   =       679.0447  ANGLE   =      1790.3392  DIHED      =      1375.3774
 UB     =         0.0000  IMP     =         0.0000  CMAP       =       189.5673
 1-4 NB =       810.2047  1-4 EEL =     10713.1387  VDWAALS    =      8042.6468
 EELEC  =   -102936.1573  EHBOND  =         0.0000  RESTRAINT  =         3.4207
 EAMBER (non-restraint)  =    -79335.8385
 EKCMT  =      5259.2540  VIRIAL  =      5160.4339  VOLUME     =    207292.2740
                                                    Density    =         1.0530
 ------------------------------------------------------------------------------

      R M S  F L U C T U A T I O N S

 NSTEP =    50000   TIME(PS) =    6600.000  TEMP(K) =     1.82  PRESS =   166.8
 Etot   =       155.5571  EKtot   =        79.9870  EPtot      =       123.0402
 BOND   =        21.4003  ANGLE   =        29.6888  DIHED      =        15.5391
 UB     =         0.0000  IMP     =         0.0000  CMAP       =         7.8395
 1-4 NB =        11.2560  1-4 EEL =        30.7949  VDWAALS    =       110.4456
 EELEC  =       188.1523  EHBOND  =         0.0000  RESTRAINT  =         0.9622
 EAMBER (non-restraint)  =       122.0779
 EKCMT  =        53.8914  VIRIAL  =       749.5688  VOLUME     =       313.3788
                                                    Density    =         0.0016
 ------------------------------------------------------------------------------
