-------------------------------------------------------
          Amber 18 PMEMD                              2018
          -------------------------------------------------------

  [-O]verwriting output

File Assignments:

 Here is the input file:

Equilibration with solute restrictions
&cntrl
imin = 0,                           ! No Minimization
nmropt = 0,                         ! No NMR restraints read

! Nature and format of the input
ntx = 5,                            ! Coordinates and velocities will be read
irest = 1,                          ! Do not run a new simulation

! Nature and format of the output
ntxo = 1,                           ! rstrt file in ASCII format
ntpr = 500,                         ! inf in output every ntpr steps
ntwr = 500,                         ! rstrt file every ntwr steps
ntwx = 500,                         ! mdcrd file every ntwx steps
ntwv = 0,                           ! mdvel without velocities
ntwe = 0,                           ! Do not write energies and temperatures
idecomp = 0,                        ! No energy decomposition
iwrap = 1,                          ! Coordinates of the restart and mdcrd file

! Frozen or restrained atoms
ibelly = 0,                         ! No frozen atoms
ntr=1,                              ! Harmonic potential restraints
restraint_wt = 0.18,                ! The weight for the positional restraints
restraintmask = ':1-188@N,CA,C,O',  ! restrained residues

! Molecular dynamics
nstlim = 50000,                     ! Number of MD-steps
dt = 0.002,                         ! Time step

! Temperature regulation
ntt = 3,                            ! Langevin thermostat
gamma_ln = 5,                       ! Gamma constant for Langevin
temp0 = 300.0,                      ! Reference T at which the system is to be
tempi = 300.0,                      ! Initial T
ig = -1,                            ! Seed for the RNG

! P and V regulation
ntp = 1,                            ! constant P
barostat = 1,                       ! Berendsen barostat
taup = 1,                           ! Pressure relaxation time
ntb = 2,                            ! Periodic box for constant P

! SHAKE variables
ntc = 2,                            ! Bonds involving H are constrained
ntf = 2,                            ! Bond interaction involving H are ommited.

cut = 11.0,                         ! Nonbonded cutoff
/
&end

Note: ig = -1. Setting random seed to   509529 based on wallclock time in
      microseconds.

--------------------------------------------------------------------------------
   1.  RESOURCE   USE:
--------------------------------------------------------------------------------

 getting new box info from bottom of inpcrd
 NATOM  =   29184 NTYPES =      19 NBONH =   21117 MBONA  =    8095
 NTHETH =    3438 MTHETA =    2092 NPHIH =    6828 MPHIA  =    6625
 NHPARM =       0 NPARM  =       0 NNB   =   62463 NRES   =    6727
 NBONA  =    8095 NTHETA =    2092 NPHIA =    6625 NUMBND =      77
 NUMANG =     180 NPTRA  =     202 NATYP =      39 NPHB   =       1
 IFBOX  =       2 NMXRS  =      24 IFCAP =       0 NEXTRA =    6537
 NCOPY  =       0

     BOX TYPE: TRUNCATED OCTAHEDRON

--------------------------------------------------------------------------------
   2.  CONTROL  DATA  FOR  THE  RUN
--------------------------------------------------------------------------------

default_name

General flags:
     imin    =       0, nmropt  =       0

Nature and format of input:
     ntx     =       5, irest   =       1, ntrx    =       1

Nature and format of output:
     ntxo    =       1, ntpr    =     500, ntrx    =       1, ntwr    =     500
     iwrap   =       1, ntwx    =     500, ntwv    =       0, ntwe    =       0
     ioutfm  =       1, ntwprt  =       0, idecomp =       0, rbornstat=      0

Potential function:
     ntf     =       2, ntb     =       2, igb     =       0, nsnb    =      25
     ipol    =       0, gbsa    =       0, iesp    =       0
     dielc   =   1.00000, cut     =  11.00000, intdiel =   1.00000

Frozen or restrained atoms:
     ibelly  =       0, ntr     =       1
     restraint_wt =   0.18000

Molecular dynamics:
     nstlim  =     50000, nscm    =         0, nrespa  =         1
     t       =   0.00000, dt      =   0.00200, vlimit  =  -1.00000

Langevin dynamics temperature regulation:
     ig      =  509529
     temp0   = 300.00000, tempi   = 300.00000, gamma_ln=   5.00000

Pressure regulation:
     ntp     =       1
     pres0   =   1.00000, comp    =  44.60000, taup    =   1.00000

SHAKE:
     ntc     =       2, jfastw  =       0
     tol     =   0.00001

Extra-points options:
     frameon =       1, chngmask=       1

Ewald parameters:
     verbose =       0, ew_type =       0, nbflag  =       1, use_pme =       1
     vdwmeth =       1, eedmeth =       1, netfrc  =       1
     Box X =   66.073   Box Y =   66.073   Box Z =   66.073
     Alpha =  109.471   Beta  =  109.471   Gamma =  109.471
     NFFT1 =   64       NFFT2 =   64       NFFT3 =   64
     Cutoff=   11.000   Tol   =0.100E-04
     Ewald Coefficient =  0.24861
     Interpolation order =    4

    LOADING THE CONSTRAINED ATOMS AS GROUPS

   5.  REFERENCE ATOM COORDINATES

  default_name
     Mask :1-188@N,CA,C,O; matches   752 atoms

--------------------------------------------------------------------------------
   3.  ATOMIC COORDINATES AND VELOCITIES
--------------------------------------------------------------------------------

default_name
 begin time read from input coords =  3500.000 ps

 Number of triangulated 3-point waters found:     6537

     Sum of charges from parm topology file =   0.00003572
     Forcing neutrality...

--------------------------------------------------------------------------------
   4.  RESULTS
 NSTEP =      500   TIME(PS) =    3501.000  TEMP(K) =   299.60  PRESS =   -84.6
 Etot   =    -72467.0464  EKtot   =     13938.4727  EPtot      =    -86405.5190
 BOND   =       548.1889  ANGLE   =      1591.7198  DIHED      =      1055.5892
 UB     =         0.0000  IMP     =         0.0000  CMAP       =       144.3858
 1-4 NB =       661.5504  1-4 EEL =     10389.2899  VDWAALS    =      9715.0183
 EELEC  =   -110529.3127  EHBOND  =         0.0000  RESTRAINT  =        18.0514
 EAMBER (non-restraint)  =    -86423.5704
 EKCMT  =      5908.7420  VIRIAL  =      6314.8727  VOLUME     =    222324.7579
                                                    Density    =         1.0423
 ------------------------------------------------------------------------------

      A V E R A G E S   O V E R     100 S T E P S

 NSTEP =    50000   TIME(PS) =    3600.000  TEMP(K) =   300.12  PRESS =    15.2
 Etot   =    -72357.0163  EKtot   =     13962.6064  EPtot      =    -86319.6227
 BOND   =       570.7084  ANGLE   =      1597.1506  DIHED      =      1052.2762
 UB     =         0.0000  IMP     =         0.0000  CMAP       =       143.3032
 1-4 NB =       666.7038  1-4 EEL =     10332.1554  VDWAALS    =      9666.6442
 EELEC  =   -110377.2201  EHBOND  =         0.0000  RESTRAINT  =        28.6556
 EAMBER (non-restraint)  =    -86348.2783
 EKCMT  =      5874.3053  VIRIAL  =      5801.6380  VOLUME     =    221981.3179
                                                    Density    =         1.0439
 ------------------------------------------------------------------------------

      R M S  F L U C T U A T I O N S

 NSTEP =    50000   TIME(PS) =    3600.000  TEMP(K) =     1.91  PRESS =   169.3
 Etot   =       130.8354  EKtot   =        88.8370  EPtot      =       124.1326
 BOND   =        19.5095  ANGLE   =        28.6867  DIHED      =        14.0408
 UB     =         0.0000  IMP     =         0.0000  CMAP       =         6.4262
 1-4 NB =         8.8093  1-4 EEL =        24.9778  VDWAALS    =       133.9774
 EELEC  =       194.7337  EHBOND  =         0.0000  RESTRAINT  =         2.6427
 EAMBER (non-restraint)  =       121.4899
 EKCMT  =        58.5475  VIRIAL  =       816.4162  VOLUME     =       366.3847
                                                    Density    =         0.0017
 ------------------------------------------------------------------------------
