-------------------------------------------------------
          Amber 18 PMEMD                              2018
          -------------------------------------------------------

  [-O]verwriting output

File Assignments:

 Here is the input file:

Equilibration with solute restrictions
&cntrl
imin = 0,                           ! No Minimization
nmropt = 0,                         ! No NMR restraints read

! Nature and format of the input
ntx = 5,                            ! Coordinates and velocities will be read
irest = 1,                          ! Do not run a new simulation

! Nature and format of the output
ntxo = 1,                           ! rstrt file in ASCII format
ntpr = 500,                         ! inf in output every ntpr steps
ntwr = 500,                         ! rstrt file every ntwr steps
ntwx = 500,                         ! mdcrd file every ntwx steps
ntwv = 0,                           ! mdvel without velocities
ntwe = 0,                           ! Do not write energies and temperatures
idecomp = 0,                        ! No energy decomposition
iwrap = 1,                          ! Coordinates of the restart and mdcrd file

! Frozen or restrained atoms
ibelly = 0,                         ! No frozen atoms
ntr=1,                              ! Harmonic potential restraints
restraint_wt = 0.03,                ! The weight for the positional restraints
restraintmask = ':1-228@N,CA,C,O',  ! restrained residues

! Molecular dynamics
nstlim = 50000,                     ! Number of MD-steps
dt = 0.002,                         ! Time step

! Temperature regulation
ntt = 3,                            ! Langevin thermostat
gamma_ln = 5,                       ! Gamma constant for Langevin
temp0 = 300.0,                      ! Reference T at which the system is to be
tempi = 300.0,                      ! Initial T
ig = -1,                            ! Seed for the RNG

! P and V regulation
ntp = 1,                            ! constant P
barostat = 1,                       ! Berendsen barostat
taup = 1,                           ! Pressure relaxation time
ntb = 2,                            ! Periodic box for constant P

! SHAKE variables
ntc = 2,                            ! Bonds involving H are constrained
ntf = 2,                            ! Bond interaction involving H are ommited.

cut = 11.0,                         ! Nonbonded cutoff
/
&end

Note: ig = -1. Setting random seed to   777615 based on wallclock time in
      microseconds.

--------------------------------------------------------------------------------
   1.  RESOURCE   USE:
--------------------------------------------------------------------------------

 getting new box info from bottom of inpcrd
 NATOM  =   43266 NTYPES =      19 NBONH =   31551 MBONA  =   11743
 NTHETH =    3926 MTHETA =    2450 NPHIH =    7960 MPHIA  =    7908
 NHPARM =       0 NPARM  =       0 NNB   =   88865 NRES   =   10173
 NBONA  =   11743 NTHETA =    2450 NPHIA =    7908 NUMBND =      73
 NUMANG =     168 NPTRA  =     192 NATYP =      38 NPHB   =       1
 IFBOX  =       2 NMXRS  =      24 IFCAP =       0 NEXTRA =    9939
 NCOPY  =       0

     BOX TYPE: TRUNCATED OCTAHEDRON

--------------------------------------------------------------------------------
   2.  CONTROL  DATA  FOR  THE  RUN
--------------------------------------------------------------------------------

default_name

General flags:
     imin    =       0, nmropt  =       0

Nature and format of input:
     ntx     =       5, irest   =       1, ntrx    =       1

Nature and format of output:
     ntxo    =       1, ntpr    =     500, ntrx    =       1, ntwr    =     500
     iwrap   =       1, ntwx    =     500, ntwv    =       0, ntwe    =       0
     ioutfm  =       1, ntwprt  =       0, idecomp =       0, rbornstat=      0

Potential function:
     ntf     =       2, ntb     =       2, igb     =       0, nsnb    =      25
     ipol    =       0, gbsa    =       0, iesp    =       0
     dielc   =   1.00000, cut     =  11.00000, intdiel =   1.00000

Frozen or restrained atoms:
     ibelly  =       0, ntr     =       1
     restraint_wt =   0.03000

Molecular dynamics:
     nstlim  =     50000, nscm    =         0, nrespa  =         1
     t       =   0.00000, dt      =   0.00200, vlimit  =  -1.00000

Langevin dynamics temperature regulation:
     ig      =  777615
     temp0   = 300.00000, tempi   = 300.00000, gamma_ln=   5.00000

Pressure regulation:
     ntp     =       1
     pres0   =   1.00000, comp    =  44.60000, taup    =   1.00000

SHAKE:
     ntc     =       2, jfastw  =       0
     tol     =   0.00001

Extra-points options:
     frameon =       1, chngmask=       1

Ewald parameters:
     verbose =       0, ew_type =       0, nbflag  =       1, use_pme =       1
     vdwmeth =       1, eedmeth =       1, netfrc  =       1
     Box X =   75.234   Box Y =   75.234   Box Z =   75.234
     Alpha =  109.471   Beta  =  109.471   Gamma =  109.471
     NFFT1 =   80       NFFT2 =   80       NFFT3 =   80
     Cutoff=   11.000   Tol   =0.100E-04
     Ewald Coefficient =  0.24861
     Interpolation order =    4

    LOADING THE CONSTRAINED ATOMS AS GROUPS

   5.  REFERENCE ATOM COORDINATES

  default_name
     Mask :1-228@N,CA,C,O; matches   912 atoms

--------------------------------------------------------------------------------
   3.  ATOMIC COORDINATES AND VELOCITIES
--------------------------------------------------------------------------------

default_name
 begin time read from input coords =  5200.000 ps

 Number of triangulated 3-point waters found:     9939

     Sum of charges from parm topology file =   0.00005439
     Forcing neutrality...

--------------------------------------------------------------------------------
   4.  RESULTS
 NSTEP =      500   TIME(PS) =    5201.000  TEMP(K) =   300.56  PRESS =   100.6
 Etot   =   -108694.9324  EKtot   =     20435.7676  EPtot      =   -129130.7000
 BOND   =       657.8965  ANGLE   =      1785.7931  DIHED      =      1226.7758
 UB     =         0.0000  IMP     =         0.0000  CMAP       =       165.6127
 1-4 NB =       776.5460  1-4 EEL =     10668.8422  VDWAALS    =     15403.6901
 EELEC  =   -159821.2705  EHBOND  =         0.0000  RESTRAINT  =         5.4140
 EAMBER (non-restraint)  =   -129136.1140
 EKCMT  =      8915.1408  VIRIAL  =      8202.3125  VOLUME     =    328126.6913
                                                    Density    =         1.0351
 ------------------------------------------------------------------------------

      A V E R A G E S   O V E R     100 S T E P S

 NSTEP =    50000   TIME(PS) =    5300.000  TEMP(K) =   299.95  PRESS =    14.7
 Etot   =   -108821.9142  EKtot   =     20393.8584  EPtot      =   -129215.7726
 BOND   =       673.4398  ANGLE   =      1784.6355  DIHED      =      1229.3676
 UB     =         0.0000  IMP     =         0.0000  CMAP       =       174.5777
 1-4 NB =       779.6474  1-4 EEL =     10678.2621  VDWAALS    =     15472.4279
 EELEC  =   -160021.5689  EHBOND  =         0.0000  RESTRAINT  =        13.4383
 EAMBER (non-restraint)  =   -129229.2109
 EKCMT  =      8911.7285  VIRIAL  =      8807.6097  VOLUME     =    329293.0696
                                                    Density    =         1.0314
 ------------------------------------------------------------------------------

      R M S  F L U C T U A T I O N S

 NSTEP =    50000   TIME(PS) =    5300.000  TEMP(K) =     1.38  PRESS =   138.0
 Etot   =       187.8023  EKtot   =        93.9784  EPtot      =       166.2725
 BOND   =        23.8578  ANGLE   =        32.2249  DIHED      =        15.6083
 UB     =         0.0000  IMP     =         0.0000  CMAP       =         7.6433
 1-4 NB =        10.7507  1-4 EEL =        37.9706  VDWAALS    =       153.8410
 EELEC  =       226.4679  EHBOND  =         0.0000  RESTRAINT  =         2.4513
 EAMBER (non-restraint)  =       163.8212
 EKCMT  =        65.4168  VIRIAL  =       970.0605  VOLUME     =       562.0509
                                                    Density    =         0.0018
 ------------------------------------------------------------------------------
